*HEADING
T02 S-LIN hanging 8-split zz cycle 2
units: mm, N, s, MPa. Material is illustrative steel, not a coupon card.
E=210000.0 nu=0.3. load -5000.0 N on TIP_TOP.
*NODE, NSET=NALL
1, 0, -10, 0
2, 111.111111111, -10, 17.2839506173
3, 111.111111111, 0, 17.2839506173
4, 0, 0, 0
5, 0, -10, 48
6, 111.111111111, -10, 61.8271604938
7, 111.111111111, 0, 61.8271604938
8, 0, 0, 48
9, 0, -10, 96
10, 111.111111111, -10, 106.37037037
11, 111.111111111, 0, 106.37037037
12, 0, 0, 96
13, 0, -10, 144
14, 111.111111111, -10, 150.913580247
15, 111.111111111, 0, 150.913580247
16, 0, 0, 144
17, 0, -10, 192
18, 111.111111111, -10, 195.456790123
19, 111.111111111, 0, 195.456790123
20, 0, 0, 192
** ... 1722 like lines cut
*ELEMENT, TYPE=C3D8, ELSET=EALL
1, 1, 1190, 1193, 1186, 1185, 1191, 1194, 1187
2, 1185, 1191, 1194, 1187, 5, 1192, 1195, 1188
3, 1186, 1193, 1196, 4, 1187, 1194, 1197, 1189
4, 1187, 1194, 1197, 1189, 1188, 1195, 1198, 8
5, 1190, 2, 1200, 1193, 1191, 1199, 1201, 1194
6, 1191, 1199, 1201, 1194, 1192, 6, 1202, 1195
7, 1193, 1200, 3, 1196, 1194, 1201, 1203, 1197
8, 1194, 1201, 1203, 1197, 1195, 1202, 7, 1198
9, 5, 1192, 1195, 1188, 1204, 1208, 1210, 1205
10, 1204, 1208, 1210, 1205, 9, 1209, 1211, 1206
11, 1188, 1195, 1198, 8, 1205, 1210, 1212, 1207
12, 1205, 1210, 1212, 1207, 1206, 1211, 1213, 12
13, 1192, 6, 1202, 1195, 1208, 1214, 1215, 1210
14, 1208, 1214, 1215, 1210, 1209, 10, 1216, 1211
15, 1195, 1202, 7, 1198, 1210, 1215, 1217, 1212
16, 1210, 1215, 1217, 1212, 1211, 1216, 11, 1213
17, 9, 10, 11, 12, 13, 14, 15, 16
18, 13, 14, 15, 16, 17, 18, 19, 20
19, 17, 18, 19, 20, 21, 22, 23, 24
20, 4, 1196, 1222, 1218, 1189, 1197, 1223, 1219
** ... 1003 like lines cut
*NSET, NSET=CLAMP
1, 4, 5, 8, 9, 12, 13, 16, 17, 20, 21, 24, 26, 28, 30, 32
34, 36, 37, 40, 41, 44, 45, 48, 50, 52, 54, 56, 58, 60, 62, 64
66, 68, 70, 72, 74, 76, 78, 80, 82, 84, 86, 88, 90, 92, 94, 96
1185, 1186, 1187, 1188, 1189, 1204, 1205, 1206, 1207, 1218, 1219, 1220, 1221, 1232, 1233, 1234
*NSET, NSET=TIP_TOP
887, 888, 891, 894, 896, 898, 900, 903, 906, 909, 912
*MATERIAL, NAME=STEEL
*ELASTIC
210000, 0.3
*SOLID SECTION, ELSET=EALL, MATERIAL=STEEL
*EQUATION
3
916, 1, 1.0, 292, 1, -0.5, 302, 1, -0.5
*EQUATION
3
916, 2, 1.0, 292, 2, -0.5, 302, 2, -0.5
*EQUATION
3
916, 3, 1.0, 292, 3, -0.5, 302, 3, -0.5
*EQUATION
3
920, 1, 1.0, 292, 1, -0.5, 340, 1, -0.5
*EQUATION
3
920, 2, 1.0, 292, 2, -0.5, 340, 2, -0.5
*EQUATION
3
920, 3, 1.0, 292, 3, -0.5, 340, 3, -0.5
*EQUATION
5
923, 1, 1.0, 292, 1, -0.25, 340, 1, -0.25, 350, 1, -0.25, 302, 1, -0.25
*EQUATION
5
923, 2, 1.0, 292, 2, -0.25, 340, 2, -0.25, 350, 2, -0.25, 302, 2, -0.25
*EQUATION
5
923, 3, 1.0, 292, 3, -0.25, 340, 3, -0.25, 350, 3, -0.25, 302, 3, -0.25
*EQUATION
3
926, 1, 1.0, 302, 1, -0.5, 350, 1, -0.5
*EQUATION
3
926, 2, 1.0, 302, 2, -0.5, 350, 2, -0.5
*EQUATION
3
926, 3, 1.0, 302, 3, -0.5, 350, 3, -0.5
*EQUATION
3
930, 1, 1.0, 340, 1, -0.5, 350, 1, -0.5
*EQUATION
3
930, 2, 1.0, 340, 2, -0.5, 350, 2, -0.5
*EQUATION
3
930, 3, 1.0, 340, 3, -0.5, 350, 3, -0.5
*EQUATION
3
935, 1, 1.0, 339, 1, -0.5, 340, 1, -0.5
*EQUATION
3
935, 2, 1.0, 339, 2, -0.5, 340, 2, -0.5
*EQUATION
3
935, 3, 1.0, 339, 3, -0.5, 340, 3, -0.5
*EQUATION
3
1116, 1, 1.0, 723, 1, -0.5, 724, 1, -0.5
*EQUATION
3
1116, 2, 1.0, 723, 2, -0.5, 724, 2, -0.5
*EQUATION
3
1116, 3, 1.0, 723, 3, -0.5, 724, 3, -0.5
*EQUATION
3
1126, 1, 1.0, 724, 1, -0.5, 734, 1, -0.5
*EQUATION
3
1126, 2, 1.0, 724, 2, -0.5, 734, 2, -0.5
*EQUATION
3
1126, 3, 1.0, 724, 3, -0.5, 734, 3, -0.5
*EQUATION
3
1128, 1, 1.0, 817, 1, -0.5, 819, 1, -0.5
*EQUATION
3
1128, 2, 1.0, 817, 2, -0.5, 819, 2, -0.5
*EQUATION
3
1128, 3, 1.0, 817, 3, -0.5, 819, 3, -0.5
*EQUATION
3
1129, 1, 1.0, 817, 1, -0.5, 818, 1, -0.5
*EQUATION
3
1129, 2, 1.0, 817, 2, -0.5, 818, 2, -0.5
*EQUATION
3
1129, 3, 1.0, 817, 3, -0.5, 818, 3, -0.5
*EQUATION
5
1130, 1, 1.0, 817, 1, -0.25, 818, 1, -0.25, 820, 1, -0.25, 819, 1, -0.25
*EQUATION
5
1130, 2, 1.0, 817, 2, -0.25, 818, 2, -0.25, 820, 2, -0.25, 819, 2, -0.25
*EQUATION
5
1130, 3, 1.0, 817, 3, -0.25, 818, 3, -0.25, 820, 3, -0.25, 819, 3, -0.25
*EQUATION
3
1131, 1, 1.0, 819, 1, -0.5, 820, 1, -0.5
*EQUATION
3
1131, 2, 1.0, 819, 2, -0.5, 820, 2, -0.5
*EQUATION
3
1131, 3, 1.0, 819, 3, -0.5, 820, 3, -0.5
*EQUATION
3
1132, 1, 1.0, 818, 1, -0.5, 820, 1, -0.5
*EQUATION
3
1132, 2, 1.0, 818, 2, -0.5, 820, 2, -0.5
*EQUATION
3
1132, 3, 1.0, 818, 3, -0.5, 820, 3, -0.5
*EQUATION
3
1147, 1, 1.0, 819, 1, -0.5, 821, 1, -0.5
*EQUATION
3
1147, 2, 1.0, 819, 2, -0.5, 821, 2, -0.5
*EQUATION
3
1147, 3, 1.0, 819, 3, -0.5, 821, 3, -0.5
*EQUATION
5
1148, 1, 1.0, 819, 1, -0.25, 820, 1, -0.25, 822, 1, -0.25, 821, 1, -0.25
*EQUATION
5
1148, 2, 1.0, 819, 2, -0.25, 820, 2, -0.25, 822, 2, -0.25, 821, 2, -0.25
*EQUATION
5
1148, 3, 1.0, 819, 3, -0.25, 820, 3, -0.25, 822, 3, -0.25, 821, 3, -0.25
*EQUATION
3
1149, 1, 1.0, 821, 1, -0.5, 822, 1, -0.5
*EQUATION
3
1149, 2, 1.0, 821, 2, -0.5, 822, 2, -0.5
*EQUATION
3
1149, 3, 1.0, 821, 3, -0.5, 822, 3, -0.5
*EQUATION
3
1150, 1, 1.0, 820, 1, -0.5, 822, 1, -0.5
*EQUATION
3
1150, 2, 1.0, 820, 2, -0.5, 822, 2, -0.5
*EQUATION
3
1150, 3, 1.0, 820, 3, -0.5, 822, 3, -0.5
*EQUATION
3
1161, 1, 1.0, 818, 1, -0.5, 829, 1, -0.5
*EQUATION
3
1161, 2, 1.0, 818, 2, -0.5, 829, 2, -0.5
*EQUATION
3
1161, 3, 1.0, 818, 3, -0.5, 829, 3, -0.5
*EQUATION
5
1162, 1, 1.0, 818, 1, -0.25, 829, 1, -0.25, 830, 1, -0.25, 820, 1, -0.25
*EQUATION
5
1162, 2, 1.0, 818, 2, -0.25, 829, 2, -0.25, 830, 2, -0.25, 820, 2, -0.25
*EQUATION
5
1162, 3, 1.0, 818, 3, -0.25, 829, 3, -0.25, 830, 3, -0.25, 820, 3, -0.25
*EQUATION
3
1163, 1, 1.0, 820, 1, -0.5, 830, 1, -0.5
*EQUATION
3
1163, 2, 1.0, 820, 2, -0.5, 830, 2, -0.5
*EQUATION
3
1163, 3, 1.0, 820, 3, -0.5, 830, 3, -0.5
*EQUATION
3
1164, 1, 1.0, 829, 1, -0.5, 830, 1, -0.5
*EQUATION
3
1164, 2, 1.0, 829, 2, -0.5, 830, 2, -0.5
*EQUATION
3
1164, 3, 1.0, 829, 3, -0.5, 830, 3, -0.5
*EQUATION
5
1175, 1, 1.0, 820, 1, -0.25, 830, 1, -0.25, 831, 1, -0.25, 822, 1, -0.25
*EQUATION
5
1175, 2, 1.0, 820, 2, -0.25, 830, 2, -0.25, 831, 2, -0.25, 822, 2, -0.25
*EQUATION
5
1175, 3, 1.0, 820, 3, -0.25, 830, 3, -0.25, 831, 3, -0.25, 822, 3, -0.25
*EQUATION
3
1176, 1, 1.0, 822, 1, -0.5, 831, 1, -0.5
*EQUATION
3
1176, 2, 1.0, 822, 2, -0.5, 831, 2, -0.5
*EQUATION
3
1176, 3, 1.0, 822, 3, -0.5, 831, 3, -0.5
*EQUATION
3
1177, 1, 1.0, 830, 1, -0.5, 831, 1, -0.5
*EQUATION
3
1177, 2, 1.0, 830, 2, -0.5, 831, 2, -0.5
*EQUATION
3
1177, 3, 1.0, 830, 3, -0.5, 831, 3, -0.5
*EQUATION
3
1202, 1, 1.0, 6, 1, -0.5, 7, 1, -0.5
*EQUATION
3
1202, 2, 1.0, 6, 2, -0.5, 7, 2, -0.5
*EQUATION
3
1202, 3, 1.0, 6, 3, -0.5, 7, 3, -0.5
*EQUATION
3
1209, 1, 1.0, 9, 1, -0.5, 10, 1, -0.5
*EQUATION
3
1209, 2, 1.0, 9, 2, -0.5, 10, 2, -0.5
*EQUATION
3
1209, 3, 1.0, 9, 3, -0.5, 10, 3, -0.5
*EQUATION
5
1211, 1, 1.0, 9, 1, -0.25, 10, 1, -0.25, 11, 1, -0.25, 12, 1, -0.25
*EQUATION
5
1211, 2, 1.0, 9, 2, -0.25, 10, 2, -0.25, 11, 2, -0.25, 12, 2, -0.25
*EQUATION
5
1211, 3, 1.0, 9, 3, -0.25, 10, 3, -0.25, 11, 3, -0.25, 12, 3, -0.25
*EQUATION
3
1213, 1, 1.0, 11, 1, -0.5, 12, 1, -0.5
*EQUATION
3
1213, 2, 1.0, 11, 2, -0.5, 12, 2, -0.5
*EQUATION
3
1213, 3, 1.0, 11, 3, -0.5, 12, 3, -0.5
*EQUATION
3
1214, 1, 1.0, 6, 1, -0.5, 10, 1, -0.5
*EQUATION
3
1214, 2, 1.0, 6, 2, -0.5, 10, 2, -0.5
*EQUATION
3
1214, 3, 1.0, 6, 3, -0.5, 10, 3, -0.5
*EQUATION
5
1215, 1, 1.0, 6, 1, -0.25, 7, 1, -0.25, 11, 1, -0.25, 10, 1, -0.25
*EQUATION
5
1215, 2, 1.0, 6, 2, -0.25, 7, 2, -0.25, 11, 2, -0.25, 10, 2, -0.25
*EQUATION
5
1215, 3, 1.0, 6, 3, -0.25, 7, 3, -0.25, 11, 3, -0.25, 10, 3, -0.25
*EQUATION
3
1216, 1, 1.0, 10, 1, -0.5, 11, 1, -0.5
*EQUATION
3
1216, 2, 1.0, 10, 2, -0.5, 11, 2, -0.5
*EQUATION
3
1216, 3, 1.0, 10, 3, -0.5, 11, 3, -0.5
*EQUATION
3
1217, 1, 1.0, 7, 1, -0.5, 11, 1, -0.5
*EQUATION
3
1217, 2, 1.0, 7, 2, -0.5, 11, 2, -0.5
*EQUATION
3
1217, 3, 1.0, 7, 3, -0.5, 11, 3, -0.5
*EQUATION
3
1230, 1, 1.0, 7, 1, -0.5, 27, 1, -0.5
*EQUATION
3
1230, 2, 1.0, 7, 2, -0.5, 27, 2, -0.5
*EQUATION
3
1230, 3, 1.0, 7, 3, -0.5, 27, 3, -0.5
*EQUATION
5
1236, 1, 1.0, 12, 1, -0.25, 11, 1, -0.25, 29, 1, -0.25, 30, 1, -0.25
*EQUATION
5
1236, 2, 1.0, 12, 2, -0.25, 11, 2, -0.25, 29, 2, -0.25, 30, 2, -0.25
*EQUATION
5
1236, 3, 1.0, 12, 3, -0.25, 11, 3, -0.25, 29, 3, -0.25, 30, 3, -0.25
*EQUATION
3
1238, 1, 1.0, 29, 1, -0.5, 30, 1, -0.5
*EQUATION
3
1238, 2, 1.0, 29, 2, -0.5, 30, 2, -0.5
*EQUATION
3
1238, 3, 1.0, 29, 3, -0.5, 30, 3, -0.5
*EQUATION
5
1239, 1, 1.0, 7, 1, -0.25, 27, 1, -0.25, 29, 1, -0.25, 11, 1, -0.25
*EQUATION
5
1239, 2, 1.0, 7, 2, -0.25, 27, 2, -0.25, 29, 2, -0.25, 11, 2, -0.25
*EQUATION
5
1239, 3, 1.0, 7, 3, -0.25, 27, 3, -0.25, 29, 3, -0.25, 11, 3, -0.25
*EQUATION
3
1240, 1, 1.0, 11, 1, -0.5, 29, 1, -0.5
*EQUATION
3
1240, 2, 1.0, 11, 2, -0.5, 29, 2, -0.5
*EQUATION
3
1240, 3, 1.0, 11, 3, -0.5, 29, 3, -0.5
*EQUATION
3
1241, 1, 1.0, 27, 1, -0.5, 29, 1, -0.5
*EQUATION
3
1241, 2, 1.0, 27, 2, -0.5, 29, 2, -0.5
*EQUATION
3
1241, 3, 1.0, 27, 3, -0.5, 29, 3, -0.5
*EQUATION
3
1244, 1, 1.0, 6, 1, -0.5, 99, 1, -0.5
*EQUATION
3
1244, 2, 1.0, 6, 2, -0.5, 99, 2, -0.5
*EQUATION
3
1244, 3, 1.0, 6, 3, -0.5, 99, 3, -0.5
*EQUATION
5
1247, 1, 1.0, 6, 1, -0.25, 99, 1, -0.25, 100, 1, -0.25, 7, 1, -0.25
*EQUATION
5
1247, 2, 1.0, 6, 2, -0.25, 99, 2, -0.25, 100, 2, -0.25, 7, 2, -0.25
*EQUATION
5
1247, 3, 1.0, 6, 3, -0.25, 99, 3, -0.25, 100, 3, -0.25, 7, 3, -0.25
*EQUATION
3
1250, 1, 1.0, 7, 1, -0.5, 100, 1, -0.5
*EQUATION
3
1250, 2, 1.0, 7, 2, -0.5, 100, 2, -0.5
*EQUATION
3
1250, 3, 1.0, 7, 3, -0.5, 100, 3, -0.5
*EQUATION
3
1251, 1, 1.0, 97, 1, -0.5, 99, 1, -0.5
*EQUATION
3
1251, 2, 1.0, 97, 2, -0.5, 99, 2, -0.5
*EQUATION
3
1251, 3, 1.0, 97, 3, -0.5, 99, 3, -0.5
*EQUATION
3
1252, 1, 1.0, 97, 1, -0.5, 98, 1, -0.5
*EQUATION
3
1252, 2, 1.0, 97, 2, -0.5, 98, 2, -0.5
*EQUATION
3
1252, 3, 1.0, 97, 3, -0.5, 98, 3, -0.5
*EQUATION
5
1253, 1, 1.0, 97, 1, -0.25, 98, 1, -0.25, 100, 1, -0.25, 99, 1, -0.25
*EQUATION
5
1253, 2, 1.0, 97, 2, -0.25, 98, 2, -0.25, 100, 2, -0.25, 99, 2, -0.25
*EQUATION
5
1253, 3, 1.0, 97, 3, -0.25, 98, 3, -0.25, 100, 3, -0.25, 99, 3, -0.25
*EQUATION
3
1254, 1, 1.0, 99, 1, -0.5, 100, 1, -0.5
*EQUATION
3
1254, 2, 1.0, 99, 2, -0.5, 100, 2, -0.5
*EQUATION
3
1254, 3, 1.0, 99, 3, -0.5, 100, 3, -0.5
*EQUATION
3
1255, 1, 1.0, 98, 1, -0.5, 100, 1, -0.5
*EQUATION
3
1255, 2, 1.0, 98, 2, -0.5, 100, 2, -0.5
*EQUATION
3
1255, 3, 1.0, 98, 3, -0.5, 100, 3, -0.5
*EQUATION
5
1258, 1, 1.0, 7, 1, -0.25, 100, 1, -0.25, 110, 1, -0.25, 27, 1, -0.25
*EQUATION
5
1258, 2, 1.0, 7, 2, -0.25, 100, 2, -0.25, 110, 2, -0.25, 27, 2, -0.25
*EQUATION
5
1258, 3, 1.0, 7, 3, -0.25, 100, 3, -0.25, 110, 3, -0.25, 27, 3, -0.25
*EQUATION
3
1261, 1, 1.0, 27, 1, -0.5, 110, 1, -0.5
*EQUATION
3
1261, 2, 1.0, 27, 2, -0.5, 110, 2, -0.5
*EQUATION
3
1261, 3, 1.0, 27, 3, -0.5, 110, 3, -0.5
*EQUATION
3
1262, 1, 1.0, 98, 1, -0.5, 109, 1, -0.5
*EQUATION
3
1262, 2, 1.0, 98, 2, -0.5, 109, 2, -0.5
*EQUATION
3
1262, 3, 1.0, 98, 3, -0.5, 109, 3, -0.5
*EQUATION
5
1263, 1, 1.0, 98, 1, -0.25, 109, 1, -0.25, 110, 1, -0.25, 100, 1, -0.25
*EQUATION
5
1263, 2, 1.0, 98, 2, -0.25, 109, 2, -0.25, 110, 2, -0.25, 100, 2, -0.25
*EQUATION
5
1263, 3, 1.0, 98, 3, -0.25, 109, 3, -0.25, 110, 3, -0.25, 100, 3, -0.25
*EQUATION
3
1264, 1, 1.0, 100, 1, -0.5, 110, 1, -0.5
*EQUATION
3
1264, 2, 1.0, 100, 2, -0.5, 110, 2, -0.5
*EQUATION
3
1264, 3, 1.0, 100, 3, -0.5, 110, 3, -0.5
*EQUATION
3
1265, 1, 1.0, 109, 1, -0.5, 110, 1, -0.5
*EQUATION
3
1265, 2, 1.0, 109, 2, -0.5, 110, 2, -0.5
*EQUATION
3
1265, 3, 1.0, 109, 3, -0.5, 110, 3, -0.5
*EQUATION
3
1266, 1, 1.0, 145, 1, -0.5, 147, 1, -0.5
*EQUATION
3
1266, 2, 1.0, 145, 2, -0.5, 147, 2, -0.5
*EQUATION
3
1266, 3, 1.0, 145, 3, -0.5, 147, 3, -0.5
*EQUATION
3
1267, 1, 1.0, 145, 1, -0.5, 146, 1, -0.5
*EQUATION
3
1267, 2, 1.0, 145, 2, -0.5, 146, 2, -0.5
*EQUATION
3
1267, 3, 1.0, 145, 3, -0.5, 146, 3, -0.5
*EQUATION
5
1268, 1, 1.0, 145, 1, -0.25, 146, 1, -0.25, 148, 1, -0.25, 147, 1, -0.25
*EQUATION
5
1268, 2, 1.0, 145, 2, -0.25, 146, 2, -0.25, 148, 2, -0.25, 147, 2, -0.25
*EQUATION
5
1268, 3, 1.0, 145, 3, -0.25, 146, 3, -0.25, 148, 3, -0.25, 147, 3, -0.25
*EQUATION
3
1269, 1, 1.0, 147, 1, -0.5, 148, 1, -0.5
*EQUATION
3
1269, 2, 1.0, 147, 2, -0.5, 148, 2, -0.5
*EQUATION
3
1269, 3, 1.0, 147, 3, -0.5, 148, 3, -0.5
*EQUATION
3
1270, 1, 1.0, 146, 1, -0.5, 148, 1, -0.5
*EQUATION
3
1270, 2, 1.0, 146, 2, -0.5, 148, 2, -0.5
*EQUATION
3
1270, 3, 1.0, 146, 3, -0.5, 148, 3, -0.5
*EQUATION
3
1273, 1, 1.0, 147, 1, -0.5, 195, 1, -0.5
*EQUATION
3
1273, 2, 1.0, 147, 2, -0.5, 195, 2, -0.5
*EQUATION
3
1273, 3, 1.0, 147, 3, -0.5, 195, 3, -0.5
*EQUATION
5
1276, 1, 1.0, 147, 1, -0.25, 195, 1, -0.25, 196, 1, -0.25, 148, 1, -0.25
*EQUATION
5
1276, 2, 1.0, 147, 2, -0.25, 195, 2, -0.25, 196, 2, -0.25, 148, 2, -0.25
*EQUATION
5
1276, 3, 1.0, 147, 3, -0.25, 195, 3, -0.25, 196, 3, -0.25, 148, 3, -0.25
*EQUATION
3
1279, 1, 1.0, 148, 1, -0.5, 196, 1, -0.5
*EQUATION
3
1279, 2, 1.0, 148, 2, -0.5, 196, 2, -0.5
*EQUATION
3
1279, 3, 1.0, 148, 3, -0.5, 196, 3, -0.5
*EQUATION
3
1283, 1, 1.0, 195, 1, -0.5, 196, 1, -0.5
*EQUATION
3
1283, 2, 1.0, 195, 2, -0.5, 196, 2, -0.5
*EQUATION
3
1283, 3, 1.0, 195, 3, -0.5, 196, 3, -0.5
*EQUATION
3
1285, 1, 1.0, 146, 1, -0.5, 157, 1, -0.5
*EQUATION
3
1285, 2, 1.0, 146, 2, -0.5, 157, 2, -0.5
*EQUATION
3
1285, 3, 1.0, 146, 3, -0.5, 157, 3, -0.5
*EQUATION
5
1286, 1, 1.0, 146, 1, -0.25, 157, 1, -0.25, 158, 1, -0.25, 148, 1, -0.25
*EQUATION
5
1286, 2, 1.0, 146, 2, -0.25, 157, 2, -0.25, 158, 2, -0.25, 148, 2, -0.25
*EQUATION
5
1286, 3, 1.0, 146, 3, -0.25, 157, 3, -0.25, 158, 3, -0.25, 148, 3, -0.25
*EQUATION
3
1287, 1, 1.0, 148, 1, -0.5, 158, 1, -0.5
*EQUATION
3
1287, 2, 1.0, 148, 2, -0.5, 158, 2, -0.5
*EQUATION
3
1287, 3, 1.0, 148, 3, -0.5, 158, 3, -0.5
*EQUATION
3
1288, 1, 1.0, 157, 1, -0.5, 158, 1, -0.5
*EQUATION
3
1288, 2, 1.0, 157, 2, -0.5, 158, 2, -0.5
*EQUATION
3
1288, 3, 1.0, 157, 3, -0.5, 158, 3, -0.5
*EQUATION
5
1291, 1, 1.0, 148, 1, -0.25, 196, 1, -0.25, 206, 1, -0.25, 158, 1, -0.25
*EQUATION
5
1291, 2, 1.0, 148, 2, -0.25, 196, 2, -0.25, 206, 2, -0.25, 158, 2, -0.25
*EQUATION
5
1291, 3, 1.0, 148, 3, -0.25, 196, 3, -0.25, 206, 3, -0.25, 158, 3, -0.25
*EQUATION
3
1294, 1, 1.0, 158, 1, -0.5, 206, 1, -0.5
*EQUATION
3
1294, 2, 1.0, 158, 2, -0.5, 206, 2, -0.5
*EQUATION
3
1294, 3, 1.0, 158, 3, -0.5, 206, 3, -0.5
*EQUATION
3
1297, 1, 1.0, 196, 1, -0.5, 206, 1, -0.5
*EQUATION
3
1297, 2, 1.0, 196, 2, -0.5, 206, 2, -0.5
*EQUATION
3
1297, 3, 1.0, 196, 3, -0.5, 206, 3, -0.5
*EQUATION
3
1301, 1, 1.0, 195, 1, -0.5, 243, 1, -0.5
*EQUATION
3
1301, 2, 1.0, 195, 2, -0.5, 243, 2, -0.5
*EQUATION
3
1301, 3, 1.0, 195, 3, -0.5, 243, 3, -0.5
*EQUATION
5
1304, 1, 1.0, 195, 1, -0.25, 243, 1, -0.25, 244, 1, -0.25, 196, 1, -0.25
*EQUATION
5
1304, 2, 1.0, 195, 2, -0.25, 243, 2, -0.25, 244, 2, -0.25, 196, 2, -0.25
*EQUATION
5
1304, 3, 1.0, 195, 3, -0.25, 243, 3, -0.25, 244, 3, -0.25, 196, 3, -0.25
*EQUATION
3
1307, 1, 1.0, 196, 1, -0.5, 244, 1, -0.5
*EQUATION
3
1307, 2, 1.0, 196, 2, -0.5, 244, 2, -0.5
*EQUATION
3
1307, 3, 1.0, 196, 3, -0.5, 244, 3, -0.5
*EQUATION
3
1311, 1, 1.0, 243, 1, -0.5, 244, 1, -0.5
*EQUATION
3
1311, 2, 1.0, 243, 2, -0.5, 244, 2, -0.5
*EQUATION
3
1311, 3, 1.0, 243, 3, -0.5, 244, 3, -0.5
*EQUATION
5
1315, 1, 1.0, 196, 1, -0.25, 244, 1, -0.25, 254, 1, -0.25, 206, 1, -0.25
*EQUATION
5
1315, 2, 1.0, 196, 2, -0.25, 244, 2, -0.25, 254, 2, -0.25, 206, 2, -0.25
*EQUATION
5
1315, 3, 1.0, 196, 3, -0.25, 244, 3, -0.25, 254, 3, -0.25, 206, 3, -0.25
*EQUATION
3
1318, 1, 1.0, 206, 1, -0.5, 254, 1, -0.5
*EQUATION
3
1318, 2, 1.0, 206, 2, -0.5, 254, 2, -0.5
*EQUATION
3
1318, 3, 1.0, 206, 3, -0.5, 254, 3, -0.5
*EQUATION
3
1321, 1, 1.0, 244, 1, -0.5, 254, 1, -0.5
*EQUATION
3
1321, 2, 1.0, 244, 2, -0.5, 254, 2, -0.5
*EQUATION
3
1321, 3, 1.0, 244, 3, -0.5, 254, 3, -0.5
*EQUATION
3
1325, 1, 1.0, 243, 1, -0.5, 291, 1, -0.5
*EQUATION
3
1325, 2, 1.0, 243, 2, -0.5, 291, 2, -0.5
*EQUATION
3
1325, 3, 1.0, 243, 3, -0.5, 291, 3, -0.5
*EQUATION
5
1328, 1, 1.0, 243, 1, -0.25, 291, 1, -0.25, 292, 1, -0.25, 244, 1, -0.25
*EQUATION
5
1328, 2, 1.0, 243, 2, -0.25, 291, 2, -0.25, 292, 2, -0.25, 244, 2, -0.25
*EQUATION
5
1328, 3, 1.0, 243, 3, -0.25, 291, 3, -0.25, 292, 3, -0.25, 244, 3, -0.25
*EQUATION
3
1331, 1, 1.0, 244, 1, -0.5, 292, 1, -0.5
*EQUATION
3
1331, 2, 1.0, 244, 2, -0.5, 292, 2, -0.5
*EQUATION
3
1331, 3, 1.0, 244, 3, -0.5, 292, 3, -0.5
*EQUATION
3
1335, 1, 1.0, 291, 1, -0.5, 292, 1, -0.5
*EQUATION
3
1335, 2, 1.0, 291, 2, -0.5, 292, 2, -0.5
*EQUATION
3
1335, 3, 1.0, 291, 3, -0.5, 292, 3, -0.5
*EQUATION
5
1338, 1, 1.0, 244, 1, -0.25, 292, 1, -0.25, 302, 1, -0.25, 254, 1, -0.25
*EQUATION
5
1338, 2, 1.0, 244, 2, -0.25, 292, 2, -0.25, 302, 2, -0.25, 254, 2, -0.25
*EQUATION
5
1338, 3, 1.0, 244, 3, -0.25, 292, 3, -0.25, 302, 3, -0.25, 254, 3, -0.25
*EQUATION
3
1341, 1, 1.0, 254, 1, -0.5, 302, 1, -0.5
*EQUATION
3
1341, 2, 1.0, 254, 2, -0.5, 302, 2, -0.5
*EQUATION
3
1341, 3, 1.0, 254, 3, -0.5, 302, 3, -0.5
*EQUATION
3
1344, 1, 1.0, 291, 1, -0.5, 339, 1, -0.5
*EQUATION
3
1344, 2, 1.0, 291, 2, -0.5, 339, 2, -0.5
*EQUATION
3
1344, 3, 1.0, 291, 3, -0.5, 339, 3, -0.5
*EQUATION
5
1347, 1, 1.0, 291, 1, -0.25, 339, 1, -0.25, 340, 1, -0.25, 292, 1, -0.25
*EQUATION
5
1347, 2, 1.0, 291, 2, -0.25, 339, 2, -0.25, 340, 2, -0.25, 292, 2, -0.25
*EQUATION
5
1347, 3, 1.0, 291, 3, -0.25, 339, 3, -0.25, 340, 3, -0.25, 292, 3, -0.25
*EQUATION
3
1348, 1, 1.0, 339, 1, -0.5, 341, 1, -0.5
*EQUATION
3
1348, 2, 1.0, 339, 2, -0.5, 341, 2, -0.5
*EQUATION
3
1348, 3, 1.0, 339, 3, -0.5, 341, 3, -0.5
*EQUATION
5
1349, 1, 1.0, 339, 1, -0.25, 340, 1, -0.25, 342, 1, -0.25, 341, 1, -0.25
*EQUATION
5
1349, 2, 1.0, 339, 2, -0.25, 340, 2, -0.25, 342, 2, -0.25, 341, 2, -0.25
*EQUATION
5
1349, 3, 1.0, 339, 3, -0.25, 340, 3, -0.25, 342, 3, -0.25, 341, 3, -0.25
*EQUATION
3
1350, 1, 1.0, 341, 1, -0.5, 342, 1, -0.5
*EQUATION
3
1350, 2, 1.0, 341, 2, -0.5, 342, 2, -0.5
*EQUATION
3
1350, 3, 1.0, 341, 3, -0.5, 342, 3, -0.5
*EQUATION
3
1351, 1, 1.0, 340, 1, -0.5, 342, 1, -0.5
*EQUATION
3
1351, 2, 1.0, 340, 2, -0.5, 342, 2, -0.5
*EQUATION
3
1351, 3, 1.0, 340, 3, -0.5, 342, 3, -0.5
*EQUATION
3
1353, 1, 1.0, 341, 1, -0.5, 389, 1, -0.5
*EQUATION
3
1353, 2, 1.0, 341, 2, -0.5, 389, 2, -0.5
*EQUATION
3
1353, 3, 1.0, 341, 3, -0.5, 389, 3, -0.5
*EQUATION
5
1355, 1, 1.0, 341, 1, -0.25, 389, 1, -0.25, 390, 1, -0.25, 342, 1, -0.25
*EQUATION
5
1355, 2, 1.0, 341, 2, -0.25, 389, 2, -0.25, 390, 2, -0.25, 342, 2, -0.25
*EQUATION
5
1355, 3, 1.0, 341, 3, -0.25, 389, 3, -0.25, 390, 3, -0.25, 342, 3, -0.25
*EQUATION
3
1357, 1, 1.0, 342, 1, -0.5, 390, 1, -0.5
*EQUATION
3
1357, 2, 1.0, 342, 2, -0.5, 390, 2, -0.5
*EQUATION
3
1357, 3, 1.0, 342, 3, -0.5, 390, 3, -0.5
*EQUATION
3
1360, 1, 1.0, 389, 1, -0.5, 390, 1, -0.5
*EQUATION
3
1360, 2, 1.0, 389, 2, -0.5, 390, 2, -0.5
*EQUATION
3
1360, 3, 1.0, 389, 3, -0.5, 390, 3, -0.5
*EQUATION
3
1362, 1, 1.0, 345, 1, -0.5, 347, 1, -0.5
*EQUATION
3
1362, 2, 1.0, 345, 2, -0.5, 347, 2, -0.5
*EQUATION
3
1362, 3, 1.0, 345, 3, -0.5, 347, 3, -0.5
*EQUATION
3
1363, 1, 1.0, 345, 1, -0.5, 346, 1, -0.5
*EQUATION
3
1363, 2, 1.0, 345, 2, -0.5, 346, 2, -0.5
*EQUATION
3
1363, 3, 1.0, 345, 3, -0.5, 346, 3, -0.5
*EQUATION
5
1364, 1, 1.0, 345, 1, -0.25, 346, 1, -0.25, 348, 1, -0.25, 347, 1, -0.25
*EQUATION
5
1364, 2, 1.0, 345, 2, -0.25, 346, 2, -0.25, 348, 2, -0.25, 347, 2, -0.25
*EQUATION
5
1364, 3, 1.0, 345, 3, -0.25, 346, 3, -0.25, 348, 3, -0.25, 347, 3, -0.25
*EQUATION
3
1365, 1, 1.0, 347, 1, -0.5, 348, 1, -0.5
*EQUATION
3
1365, 2, 1.0, 347, 2, -0.5, 348, 2, -0.5
*EQUATION
3
1365, 3, 1.0, 347, 3, -0.5, 348, 3, -0.5
*EQUATION
3
1366, 1, 1.0, 346, 1, -0.5, 348, 1, -0.5
*EQUATION
3
1366, 2, 1.0, 346, 2, -0.5, 348, 2, -0.5
*EQUATION
3
1366, 3, 1.0, 346, 3, -0.5, 348, 3, -0.5
*EQUATION
3
1367, 1, 1.0, 345, 1, -0.5, 393, 1, -0.5
*EQUATION
3
1367, 2, 1.0, 345, 2, -0.5, 393, 2, -0.5
*EQUATION
3
1367, 3, 1.0, 345, 3, -0.5, 393, 3, -0.5
*EQUATION
3
1369, 1, 1.0, 347, 1, -0.5, 395, 1, -0.5
*EQUATION
3
1369, 2, 1.0, 347, 2, -0.5, 395, 2, -0.5
*EQUATION
3
1369, 3, 1.0, 347, 3, -0.5, 395, 3, -0.5
*EQUATION
5
1370, 1, 1.0, 345, 1, -0.25, 393, 1, -0.25, 394, 1, -0.25, 346, 1, -0.25
*EQUATION
5
1370, 2, 1.0, 345, 2, -0.25, 393, 2, -0.25, 394, 2, -0.25, 346, 2, -0.25
*EQUATION
5
1370, 3, 1.0, 345, 3, -0.25, 393, 3, -0.25, 394, 3, -0.25, 346, 3, -0.25
*EQUATION
5
1372, 1, 1.0, 347, 1, -0.25, 395, 1, -0.25, 396, 1, -0.25, 348, 1, -0.25
*EQUATION
5
1372, 2, 1.0, 347, 2, -0.25, 395, 2, -0.25, 396, 2, -0.25, 348, 2, -0.25
*EQUATION
5
1372, 3, 1.0, 347, 3, -0.25, 395, 3, -0.25, 396, 3, -0.25, 348, 3, -0.25
*EQUATION
3
1373, 1, 1.0, 346, 1, -0.5, 394, 1, -0.5
*EQUATION
3
1373, 2, 1.0, 346, 2, -0.5, 394, 2, -0.5
*EQUATION
3
1373, 3, 1.0, 346, 3, -0.5, 394, 3, -0.5
*EQUATION
5
1374, 1, 1.0, 346, 1, -0.25, 394, 1, -0.25, 396, 1, -0.25, 348, 1, -0.25
*EQUATION
5
1374, 2, 1.0, 346, 2, -0.25, 394, 2, -0.25, 396, 2, -0.25, 348, 2, -0.25
*EQUATION
5
1374, 3, 1.0, 346, 3, -0.25, 394, 3, -0.25, 396, 3, -0.25, 348, 3, -0.25
*EQUATION
3
1375, 1, 1.0, 348, 1, -0.5, 396, 1, -0.5
*EQUATION
3
1375, 2, 1.0, 348, 2, -0.5, 396, 2, -0.5
*EQUATION
3
1375, 3, 1.0, 348, 3, -0.5, 396, 3, -0.5
*EQUATION
3
1377, 1, 1.0, 393, 1, -0.5, 394, 1, -0.5
*EQUATION
3
1377, 2, 1.0, 393, 2, -0.5, 394, 2, -0.5
*EQUATION
3
1377, 3, 1.0, 393, 3, -0.5, 394, 3, -0.5
*EQUATION
3
1379, 1, 1.0, 395, 1, -0.5, 396, 1, -0.5
*EQUATION
3
1379, 2, 1.0, 395, 2, -0.5, 396, 2, -0.5
*EQUATION
3
1379, 3, 1.0, 395, 3, -0.5, 396, 3, -0.5
*EQUATION
3
1380, 1, 1.0, 394, 1, -0.5, 396, 1, -0.5
*EQUATION
3
1380, 2, 1.0, 394, 2, -0.5, 396, 2, -0.5
*EQUATION
3
1380, 3, 1.0, 394, 3, -0.5, 396, 3, -0.5
*EQUATION
5
1381, 1, 1.0, 340, 1, -0.25, 350, 1, -0.25, 351, 1, -0.25, 342, 1, -0.25
*EQUATION
5
1381, 2, 1.0, 340, 2, -0.25, 350, 2, -0.25, 351, 2, -0.25, 342, 2, -0.25
*EQUATION
5
1381, 3, 1.0, 340, 3, -0.25, 350, 3, -0.25, 351, 3, -0.25, 342, 3, -0.25
*EQUATION
3
1382, 1, 1.0, 342, 1, -0.5, 351, 1, -0.5
*EQUATION
3
1382, 2, 1.0, 342, 2, -0.5, 351, 2, -0.5
*EQUATION
3
1382, 3, 1.0, 342, 3, -0.5, 351, 3, -0.5
*EQUATION
3
1383, 1, 1.0, 350, 1, -0.5, 351, 1, -0.5
*EQUATION
3
1383, 2, 1.0, 350, 2, -0.5, 351, 2, -0.5
*EQUATION
3
1383, 3, 1.0, 350, 3, -0.5, 351, 3, -0.5
*EQUATION
5
1385, 1, 1.0, 342, 1, -0.25, 390, 1, -0.25, 399, 1, -0.25, 351, 1, -0.25
*EQUATION
5
1385, 2, 1.0, 342, 2, -0.25, 390, 2, -0.25, 399, 2, -0.25, 351, 2, -0.25
*EQUATION
5
1385, 3, 1.0, 342, 3, -0.25, 390, 3, -0.25, 399, 3, -0.25, 351, 3, -0.25
*EQUATION
3
1387, 1, 1.0, 351, 1, -0.5, 399, 1, -0.5
*EQUATION
3
1387, 2, 1.0, 351, 2, -0.5, 399, 2, -0.5
*EQUATION
3
1387, 3, 1.0, 351, 3, -0.5, 399, 3, -0.5
*EQUATION
3
1389, 1, 1.0, 390, 1, -0.5, 399, 1, -0.5
*EQUATION
3
1389, 2, 1.0, 390, 2, -0.5, 399, 2, -0.5
*EQUATION
3
1389, 3, 1.0, 390, 3, -0.5, 399, 3, -0.5
*EQUATION
3
1392, 1, 1.0, 389, 1, -0.5, 437, 1, -0.5
*EQUATION
3
1392, 2, 1.0, 389, 2, -0.5, 437, 2, -0.5
*EQUATION
3
1392, 3, 1.0, 389, 3, -0.5, 437, 3, -0.5
*EQUATION
5
1394, 1, 1.0, 389, 1, -0.25, 437, 1, -0.25, 438, 1, -0.25, 390, 1, -0.25
*EQUATION
5
1394, 2, 1.0, 389, 2, -0.25, 437, 2, -0.25, 438, 2, -0.25, 390, 2, -0.25
*EQUATION
5
1394, 3, 1.0, 389, 3, -0.25, 437, 3, -0.25, 438, 3, -0.25, 390, 3, -0.25
*EQUATION
3
1396, 1, 1.0, 390, 1, -0.5, 438, 1, -0.5
*EQUATION
3
1396, 2, 1.0, 390, 2, -0.5, 438, 2, -0.5
*EQUATION
3
1396, 3, 1.0, 390, 3, -0.5, 438, 3, -0.5
*EQUATION
3
1399, 1, 1.0, 437, 1, -0.5, 438, 1, -0.5
*EQUATION
3
1399, 2, 1.0, 437, 2, -0.5, 438, 2, -0.5
*EQUATION
3
1399, 3, 1.0, 437, 3, -0.5, 438, 3, -0.5
*EQUATION
3
1401, 1, 1.0, 393, 1, -0.5, 441, 1, -0.5
*EQUATION
3
1401, 2, 1.0, 393, 2, -0.5, 441, 2, -0.5
*EQUATION
3
1401, 3, 1.0, 393, 3, -0.5, 441, 3, -0.5
*EQUATION
3
1403, 1, 1.0, 395, 1, -0.5, 443, 1, -0.5
*EQUATION
3
1403, 2, 1.0, 395, 2, -0.5, 443, 2, -0.5
*EQUATION
3
1403, 3, 1.0, 395, 3, -0.5, 443, 3, -0.5
*EQUATION
5
1404, 1, 1.0, 393, 1, -0.25, 441, 1, -0.25, 442, 1, -0.25, 394, 1, -0.25
*EQUATION
5
1404, 2, 1.0, 393, 2, -0.25, 441, 2, -0.25, 442, 2, -0.25, 394, 2, -0.25
*EQUATION
5
1404, 3, 1.0, 393, 3, -0.25, 441, 3, -0.25, 442, 3, -0.25, 394, 3, -0.25
*EQUATION
5
1406, 1, 1.0, 395, 1, -0.25, 443, 1, -0.25, 444, 1, -0.25, 396, 1, -0.25
*EQUATION
5
1406, 2, 1.0, 395, 2, -0.25, 443, 2, -0.25, 444, 2, -0.25, 396, 2, -0.25
*EQUATION
5
1406, 3, 1.0, 395, 3, -0.25, 443, 3, -0.25, 444, 3, -0.25, 396, 3, -0.25
*EQUATION
3
1407, 1, 1.0, 394, 1, -0.5, 442, 1, -0.5
*EQUATION
3
1407, 2, 1.0, 394, 2, -0.5, 442, 2, -0.5
*EQUATION
3
1407, 3, 1.0, 394, 3, -0.5, 442, 3, -0.5
*EQUATION
3
1409, 1, 1.0, 396, 1, -0.5, 444, 1, -0.5
*EQUATION
3
1409, 2, 1.0, 396, 2, -0.5, 444, 2, -0.5
*EQUATION
3
1409, 3, 1.0, 396, 3, -0.5, 444, 3, -0.5
*EQUATION
3
1411, 1, 1.0, 441, 1, -0.5, 442, 1, -0.5
*EQUATION
3
1411, 2, 1.0, 441, 2, -0.5, 442, 2, -0.5
*EQUATION
3
1411, 3, 1.0, 441, 3, -0.5, 442, 3, -0.5
*EQUATION
3
1413, 1, 1.0, 443, 1, -0.5, 444, 1, -0.5
*EQUATION
3
1413, 2, 1.0, 443, 2, -0.5, 444, 2, -0.5
*EQUATION
3
1413, 3, 1.0, 443, 3, -0.5, 444, 3, -0.5
*EQUATION
5
1416, 1, 1.0, 390, 1, -0.25, 438, 1, -0.25, 447, 1, -0.25, 399, 1, -0.25
*EQUATION
5
1416, 2, 1.0, 390, 2, -0.25, 438, 2, -0.25, 447, 2, -0.25, 399, 2, -0.25
*EQUATION
5
1416, 3, 1.0, 390, 3, -0.25, 438, 3, -0.25, 447, 3, -0.25, 399, 3, -0.25
*EQUATION
3
1418, 1, 1.0, 399, 1, -0.5, 447, 1, -0.5
*EQUATION
3
1418, 2, 1.0, 399, 2, -0.5, 447, 2, -0.5
*EQUATION
3
1418, 3, 1.0, 399, 3, -0.5, 447, 3, -0.5
*EQUATION
3
1420, 1, 1.0, 438, 1, -0.5, 447, 1, -0.5
*EQUATION
3
1420, 2, 1.0, 438, 2, -0.5, 447, 2, -0.5
*EQUATION
3
1420, 3, 1.0, 438, 3, -0.5, 447, 3, -0.5
*EQUATION
3
1422, 1, 1.0, 394, 1, -0.5, 401, 1, -0.5
*EQUATION
3
1422, 2, 1.0, 394, 2, -0.5, 401, 2, -0.5
*EQUATION
3
1422, 3, 1.0, 394, 3, -0.5, 401, 3, -0.5
*EQUATION
5
1423, 1, 1.0, 394, 1, -0.25, 401, 1, -0.25, 402, 1, -0.25, 396, 1, -0.25
*EQUATION
5
1423, 2, 1.0, 394, 2, -0.25, 401, 2, -0.25, 402, 2, -0.25, 396, 2, -0.25
*EQUATION
5
1423, 3, 1.0, 394, 3, -0.25, 401, 3, -0.25, 402, 3, -0.25, 396, 3, -0.25
*EQUATION
3
1424, 1, 1.0, 396, 1, -0.5, 402, 1, -0.5
*EQUATION
3
1424, 2, 1.0, 396, 2, -0.5, 402, 2, -0.5
*EQUATION
3
1424, 3, 1.0, 396, 3, -0.5, 402, 3, -0.5
*EQUATION
3
1425, 1, 1.0, 401, 1, -0.5, 402, 1, -0.5
*EQUATION
3
1425, 2, 1.0, 401, 2, -0.5, 402, 2, -0.5
*EQUATION
3
1425, 3, 1.0, 401, 3, -0.5, 402, 3, -0.5
*EQUATION
5
1426, 1, 1.0, 394, 1, -0.25, 442, 1, -0.25, 449, 1, -0.25, 401, 1, -0.25
*EQUATION
5
1426, 2, 1.0, 394, 2, -0.25, 442, 2, -0.25, 449, 2, -0.25, 401, 2, -0.25
*EQUATION
5
1426, 3, 1.0, 394, 3, -0.25, 442, 3, -0.25, 449, 3, -0.25, 401, 3, -0.25
*EQUATION
5
1428, 1, 1.0, 396, 1, -0.25, 444, 1, -0.25, 450, 1, -0.25, 402, 1, -0.25
*EQUATION
5
1428, 2, 1.0, 396, 2, -0.25, 444, 2, -0.25, 450, 2, -0.25, 402, 2, -0.25
*EQUATION
5
1428, 3, 1.0, 396, 3, -0.25, 444, 3, -0.25, 450, 3, -0.25, 402, 3, -0.25
*EQUATION
3
1429, 1, 1.0, 401, 1, -0.5, 449, 1, -0.5
*EQUATION
3
1429, 2, 1.0, 401, 2, -0.5, 449, 2, -0.5
*EQUATION
3
1429, 3, 1.0, 401, 3, -0.5, 449, 3, -0.5
*EQUATION
3
1431, 1, 1.0, 402, 1, -0.5, 450, 1, -0.5
*EQUATION
3
1431, 2, 1.0, 402, 2, -0.5, 450, 2, -0.5
*EQUATION
3
1431, 3, 1.0, 402, 3, -0.5, 450, 3, -0.5
*EQUATION
3
1432, 1, 1.0, 442, 1, -0.5, 449, 1, -0.5
*EQUATION
3
1432, 2, 1.0, 442, 2, -0.5, 449, 2, -0.5
*EQUATION
3
1432, 3, 1.0, 442, 3, -0.5, 449, 3, -0.5
*EQUATION
3
1434, 1, 1.0, 444, 1, -0.5, 450, 1, -0.5
*EQUATION
3
1434, 2, 1.0, 444, 2, -0.5, 450, 2, -0.5
*EQUATION
3
1434, 3, 1.0, 444, 3, -0.5, 450, 3, -0.5
*EQUATION
3
1437, 1, 1.0, 437, 1, -0.5, 485, 1, -0.5
*EQUATION
3
1437, 2, 1.0, 437, 2, -0.5, 485, 2, -0.5
*EQUATION
3
1437, 3, 1.0, 437, 3, -0.5, 485, 3, -0.5
*EQUATION
5
1439, 1, 1.0, 437, 1, -0.25, 485, 1, -0.25, 486, 1, -0.25, 438, 1, -0.25
*EQUATION
5
1439, 2, 1.0, 437, 2, -0.25, 485, 2, -0.25, 486, 2, -0.25, 438, 2, -0.25
*EQUATION
5
1439, 3, 1.0, 437, 3, -0.25, 485, 3, -0.25, 486, 3, -0.25, 438, 3, -0.25
*EQUATION
3
1441, 1, 1.0, 438, 1, -0.5, 486, 1, -0.5
*EQUATION
3
1441, 2, 1.0, 438, 2, -0.5, 486, 2, -0.5
*EQUATION
3
1441, 3, 1.0, 438, 3, -0.5, 486, 3, -0.5
*EQUATION
3
1444, 1, 1.0, 485, 1, -0.5, 486, 1, -0.5
*EQUATION
3
1444, 2, 1.0, 485, 2, -0.5, 486, 2, -0.5
*EQUATION
3
1444, 3, 1.0, 485, 3, -0.5, 486, 3, -0.5
*EQUATION
3
1446, 1, 1.0, 441, 1, -0.5, 489, 1, -0.5
*EQUATION
3
1446, 2, 1.0, 441, 2, -0.5, 489, 2, -0.5
*EQUATION
3
1446, 3, 1.0, 441, 3, -0.5, 489, 3, -0.5
*EQUATION
3
1448, 1, 1.0, 443, 1, -0.5, 491, 1, -0.5
*EQUATION
3
1448, 2, 1.0, 443, 2, -0.5, 491, 2, -0.5
*EQUATION
3
1448, 3, 1.0, 443, 3, -0.5, 491, 3, -0.5
*EQUATION
5
1449, 1, 1.0, 441, 1, -0.25, 489, 1, -0.25, 490, 1, -0.25, 442, 1, -0.25
*EQUATION
5
1449, 2, 1.0, 441, 2, -0.25, 489, 2, -0.25, 490, 2, -0.25, 442, 2, -0.25
*EQUATION
5
1449, 3, 1.0, 441, 3, -0.25, 489, 3, -0.25, 490, 3, -0.25, 442, 3, -0.25
*EQUATION
5
1451, 1, 1.0, 443, 1, -0.25, 491, 1, -0.25, 492, 1, -0.25, 444, 1, -0.25
*EQUATION
5
1451, 2, 1.0, 443, 2, -0.25, 491, 2, -0.25, 492, 2, -0.25, 444, 2, -0.25
*EQUATION
5
1451, 3, 1.0, 443, 3, -0.25, 491, 3, -0.25, 492, 3, -0.25, 444, 3, -0.25
*EQUATION
3
1452, 1, 1.0, 442, 1, -0.5, 490, 1, -0.5
*EQUATION
3
1452, 2, 1.0, 442, 2, -0.5, 490, 2, -0.5
*EQUATION
3
1452, 3, 1.0, 442, 3, -0.5, 490, 3, -0.5
*EQUATION
3
1454, 1, 1.0, 444, 1, -0.5, 492, 1, -0.5
*EQUATION
3
1454, 2, 1.0, 444, 2, -0.5, 492, 2, -0.5
*EQUATION
3
1454, 3, 1.0, 444, 3, -0.5, 492, 3, -0.5
*EQUATION
3
1456, 1, 1.0, 489, 1, -0.5, 490, 1, -0.5
*EQUATION
3
1456, 2, 1.0, 489, 2, -0.5, 490, 2, -0.5
*EQUATION
3
1456, 3, 1.0, 489, 3, -0.5, 490, 3, -0.5
*EQUATION
3
1458, 1, 1.0, 491, 1, -0.5, 492, 1, -0.5
*EQUATION
3
1458, 2, 1.0, 491, 2, -0.5, 492, 2, -0.5
*EQUATION
3
1458, 3, 1.0, 491, 3, -0.5, 492, 3, -0.5
*EQUATION
5
1461, 1, 1.0, 438, 1, -0.25, 486, 1, -0.25, 495, 1, -0.25, 447, 1, -0.25
*EQUATION
5
1461, 2, 1.0, 438, 2, -0.25, 486, 2, -0.25, 495, 2, -0.25, 447, 2, -0.25
*EQUATION
5
1461, 3, 1.0, 438, 3, -0.25, 486, 3, -0.25, 495, 3, -0.25, 447, 3, -0.25
*EQUATION
3
1463, 1, 1.0, 447, 1, -0.5, 495, 1, -0.5
*EQUATION
3
1463, 2, 1.0, 447, 2, -0.5, 495, 2, -0.5
*EQUATION
3
1463, 3, 1.0, 447, 3, -0.5, 495, 3, -0.5
*EQUATION
3
1465, 1, 1.0, 486, 1, -0.5, 495, 1, -0.5
*EQUATION
3
1465, 2, 1.0, 486, 2, -0.5, 495, 2, -0.5
*EQUATION
3
1465, 3, 1.0, 486, 3, -0.5, 495, 3, -0.5
*EQUATION
5
1467, 1, 1.0, 442, 1, -0.25, 490, 1, -0.25, 497, 1, -0.25, 449, 1, -0.25
*EQUATION
5
1467, 2, 1.0, 442, 2, -0.25, 490, 2, -0.25, 497, 2, -0.25, 449, 2, -0.25
*EQUATION
5
1467, 3, 1.0, 442, 3, -0.25, 490, 3, -0.25, 497, 3, -0.25, 449, 3, -0.25
*EQUATION
5
1469, 1, 1.0, 444, 1, -0.25, 492, 1, -0.25, 498, 1, -0.25, 450, 1, -0.25
*EQUATION
5
1469, 2, 1.0, 444, 2, -0.25, 492, 2, -0.25, 498, 2, -0.25, 450, 2, -0.25
*EQUATION
5
1469, 3, 1.0, 444, 3, -0.25, 492, 3, -0.25, 498, 3, -0.25, 450, 3, -0.25
*EQUATION
3
1470, 1, 1.0, 449, 1, -0.5, 497, 1, -0.5
*EQUATION
3
1470, 2, 1.0, 449, 2, -0.5, 497, 2, -0.5
*EQUATION
3
1470, 3, 1.0, 449, 3, -0.5, 497, 3, -0.5
*EQUATION
3
1472, 1, 1.0, 450, 1, -0.5, 498, 1, -0.5
*EQUATION
3
1472, 2, 1.0, 450, 2, -0.5, 498, 2, -0.5
*EQUATION
3
1472, 3, 1.0, 450, 3, -0.5, 498, 3, -0.5
*EQUATION
3
1473, 1, 1.0, 490, 1, -0.5, 497, 1, -0.5
*EQUATION
3
1473, 2, 1.0, 490, 2, -0.5, 497, 2, -0.5
*EQUATION
3
1473, 3, 1.0, 490, 3, -0.5, 497, 3, -0.5
*EQUATION
3
1475, 1, 1.0, 492, 1, -0.5, 498, 1, -0.5
*EQUATION
3
1475, 2, 1.0, 492, 2, -0.5, 498, 2, -0.5
*EQUATION
3
1475, 3, 1.0, 492, 3, -0.5, 498, 3, -0.5
*EQUATION
3
1478, 1, 1.0, 485, 1, -0.5, 533, 1, -0.5
*EQUATION
3
1478, 2, 1.0, 485, 2, -0.5, 533, 2, -0.5
*EQUATION
3
1478, 3, 1.0, 485, 3, -0.5, 533, 3, -0.5
*EQUATION
5
1480, 1, 1.0, 485, 1, -0.25, 533, 1, -0.25, 534, 1, -0.25, 486, 1, -0.25
*EQUATION
5
1480, 2, 1.0, 485, 2, -0.25, 533, 2, -0.25, 534, 2, -0.25, 486, 2, -0.25
*EQUATION
5
1480, 3, 1.0, 485, 3, -0.25, 533, 3, -0.25, 534, 3, -0.25, 486, 3, -0.25
*EQUATION
3
1482, 1, 1.0, 486, 1, -0.5, 534, 1, -0.5
*EQUATION
3
1482, 2, 1.0, 486, 2, -0.5, 534, 2, -0.5
*EQUATION
3
1482, 3, 1.0, 486, 3, -0.5, 534, 3, -0.5
*EQUATION
3
1485, 1, 1.0, 533, 1, -0.5, 534, 1, -0.5
*EQUATION
3
1485, 2, 1.0, 533, 2, -0.5, 534, 2, -0.5
*EQUATION
3
1485, 3, 1.0, 533, 3, -0.5, 534, 3, -0.5
*EQUATION
3
1487, 1, 1.0, 489, 1, -0.5, 537, 1, -0.5
*EQUATION
3
1487, 2, 1.0, 489, 2, -0.5, 537, 2, -0.5
*EQUATION
3
1487, 3, 1.0, 489, 3, -0.5, 537, 3, -0.5
*EQUATION
3
1489, 1, 1.0, 491, 1, -0.5, 539, 1, -0.5
*EQUATION
3
1489, 2, 1.0, 491, 2, -0.5, 539, 2, -0.5
*EQUATION
3
1489, 3, 1.0, 491, 3, -0.5, 539, 3, -0.5
*EQUATION
5
1490, 1, 1.0, 489, 1, -0.25, 537, 1, -0.25, 538, 1, -0.25, 490, 1, -0.25
*EQUATION
5
1490, 2, 1.0, 489, 2, -0.25, 537, 2, -0.25, 538, 2, -0.25, 490, 2, -0.25
*EQUATION
5
1490, 3, 1.0, 489, 3, -0.25, 537, 3, -0.25, 538, 3, -0.25, 490, 3, -0.25
*EQUATION
5
1492, 1, 1.0, 491, 1, -0.25, 539, 1, -0.25, 540, 1, -0.25, 492, 1, -0.25
*EQUATION
5
1492, 2, 1.0, 491, 2, -0.25, 539, 2, -0.25, 540, 2, -0.25, 492, 2, -0.25
*EQUATION
5
1492, 3, 1.0, 491, 3, -0.25, 539, 3, -0.25, 540, 3, -0.25, 492, 3, -0.25
*EQUATION
3
1493, 1, 1.0, 490, 1, -0.5, 538, 1, -0.5
*EQUATION
3
1493, 2, 1.0, 490, 2, -0.5, 538, 2, -0.5
*EQUATION
3
1493, 3, 1.0, 490, 3, -0.5, 538, 3, -0.5
*EQUATION
3
1495, 1, 1.0, 492, 1, -0.5, 540, 1, -0.5
*EQUATION
3
1495, 2, 1.0, 492, 2, -0.5, 540, 2, -0.5
*EQUATION
3
1495, 3, 1.0, 492, 3, -0.5, 540, 3, -0.5
*EQUATION
3
1497, 1, 1.0, 537, 1, -0.5, 538, 1, -0.5
*EQUATION
3
1497, 2, 1.0, 537, 2, -0.5, 538, 2, -0.5
*EQUATION
3
1497, 3, 1.0, 537, 3, -0.5, 538, 3, -0.5
*EQUATION
3
1499, 1, 1.0, 539, 1, -0.5, 540, 1, -0.5
*EQUATION
3
1499, 2, 1.0, 539, 2, -0.5, 540, 2, -0.5
*EQUATION
3
1499, 3, 1.0, 539, 3, -0.5, 540, 3, -0.5
*EQUATION
5
1502, 1, 1.0, 486, 1, -0.25, 534, 1, -0.25, 543, 1, -0.25, 495, 1, -0.25
*EQUATION
5
1502, 2, 1.0, 486, 2, -0.25, 534, 2, -0.25, 543, 2, -0.25, 495, 2, -0.25
*EQUATION
5
1502, 3, 1.0, 486, 3, -0.25, 534, 3, -0.25, 543, 3, -0.25, 495, 3, -0.25
*EQUATION
3
1504, 1, 1.0, 495, 1, -0.5, 543, 1, -0.5
*EQUATION
3
1504, 2, 1.0, 495, 2, -0.5, 543, 2, -0.5
*EQUATION
3
1504, 3, 1.0, 495, 3, -0.5, 543, 3, -0.5
*EQUATION
3
1506, 1, 1.0, 534, 1, -0.5, 543, 1, -0.5
*EQUATION
3
1506, 2, 1.0, 534, 2, -0.5, 543, 2, -0.5
*EQUATION
3
1506, 3, 1.0, 534, 3, -0.5, 543, 3, -0.5
*EQUATION
5
1508, 1, 1.0, 490, 1, -0.25, 538, 1, -0.25, 545, 1, -0.25, 497, 1, -0.25
*EQUATION
5
1508, 2, 1.0, 490, 2, -0.25, 538, 2, -0.25, 545, 2, -0.25, 497, 2, -0.25
*EQUATION
5
1508, 3, 1.0, 490, 3, -0.25, 538, 3, -0.25, 545, 3, -0.25, 497, 3, -0.25
*EQUATION
5
1510, 1, 1.0, 492, 1, -0.25, 540, 1, -0.25, 546, 1, -0.25, 498, 1, -0.25
*EQUATION
5
1510, 2, 1.0, 492, 2, -0.25, 540, 2, -0.25, 546, 2, -0.25, 498, 2, -0.25
*EQUATION
5
1510, 3, 1.0, 492, 3, -0.25, 540, 3, -0.25, 546, 3, -0.25, 498, 3, -0.25
*EQUATION
3
1511, 1, 1.0, 497, 1, -0.5, 545, 1, -0.5
*EQUATION
3
1511, 2, 1.0, 497, 2, -0.5, 545, 2, -0.5
*EQUATION
3
1511, 3, 1.0, 497, 3, -0.5, 545, 3, -0.5
*EQUATION
3
1513, 1, 1.0, 498, 1, -0.5, 546, 1, -0.5
*EQUATION
3
1513, 2, 1.0, 498, 2, -0.5, 546, 2, -0.5
*EQUATION
3
1513, 3, 1.0, 498, 3, -0.5, 546, 3, -0.5
*EQUATION
3
1514, 1, 1.0, 538, 1, -0.5, 545, 1, -0.5
*EQUATION
3
1514, 2, 1.0, 538, 2, -0.5, 545, 2, -0.5
*EQUATION
3
1514, 3, 1.0, 538, 3, -0.5, 545, 3, -0.5
*EQUATION
3
1516, 1, 1.0, 540, 1, -0.5, 546, 1, -0.5
*EQUATION
3
1516, 2, 1.0, 540, 2, -0.5, 546, 2, -0.5
*EQUATION
3
1516, 3, 1.0, 540, 3, -0.5, 546, 3, -0.5
*EQUATION
3
1519, 1, 1.0, 533, 1, -0.5, 581, 1, -0.5
*EQUATION
3
1519, 2, 1.0, 533, 2, -0.5, 581, 2, -0.5
*EQUATION
3
1519, 3, 1.0, 533, 3, -0.5, 581, 3, -0.5
*EQUATION
5
1521, 1, 1.0, 533, 1, -0.25, 581, 1, -0.25, 582, 1, -0.25, 534, 1, -0.25
*EQUATION
5
1521, 2, 1.0, 533, 2, -0.25, 581, 2, -0.25, 582, 2, -0.25, 534, 2, -0.25
*EQUATION
5
1521, 3, 1.0, 533, 3, -0.25, 581, 3, -0.25, 582, 3, -0.25, 534, 3, -0.25
*EQUATION
3
1523, 1, 1.0, 534, 1, -0.5, 582, 1, -0.5
*EQUATION
3
1523, 2, 1.0, 534, 2, -0.5, 582, 2, -0.5
*EQUATION
3
1523, 3, 1.0, 534, 3, -0.5, 582, 3, -0.5
*EQUATION
3
1526, 1, 1.0, 581, 1, -0.5, 582, 1, -0.5
*EQUATION
3
1526, 2, 1.0, 581, 2, -0.5, 582, 2, -0.5
*EQUATION
3
1526, 3, 1.0, 581, 3, -0.5, 582, 3, -0.5
*EQUATION
3
1528, 1, 1.0, 537, 1, -0.5, 585, 1, -0.5
*EQUATION
3
1528, 2, 1.0, 537, 2, -0.5, 585, 2, -0.5
*EQUATION
3
1528, 3, 1.0, 537, 3, -0.5, 585, 3, -0.5
*EQUATION
3
1530, 1, 1.0, 539, 1, -0.5, 587, 1, -0.5
*EQUATION
3
1530, 2, 1.0, 539, 2, -0.5, 587, 2, -0.5
*EQUATION
3
1530, 3, 1.0, 539, 3, -0.5, 587, 3, -0.5
*EQUATION
5
1531, 1, 1.0, 537, 1, -0.25, 585, 1, -0.25, 586, 1, -0.25, 538, 1, -0.25
*EQUATION
5
1531, 2, 1.0, 537, 2, -0.25, 585, 2, -0.25, 586, 2, -0.25, 538, 2, -0.25
*EQUATION
5
1531, 3, 1.0, 537, 3, -0.25, 585, 3, -0.25, 586, 3, -0.25, 538, 3, -0.25
*EQUATION
5
1533, 1, 1.0, 539, 1, -0.25, 587, 1, -0.25, 588, 1, -0.25, 540, 1, -0.25
*EQUATION
5
1533, 2, 1.0, 539, 2, -0.25, 587, 2, -0.25, 588, 2, -0.25, 540, 2, -0.25
*EQUATION
5
1533, 3, 1.0, 539, 3, -0.25, 587, 3, -0.25, 588, 3, -0.25, 540, 3, -0.25
*EQUATION
3
1534, 1, 1.0, 538, 1, -0.5, 586, 1, -0.5
*EQUATION
3
1534, 2, 1.0, 538, 2, -0.5, 586, 2, -0.5
*EQUATION
3
1534, 3, 1.0, 538, 3, -0.5, 586, 3, -0.5
*EQUATION
3
1536, 1, 1.0, 540, 1, -0.5, 588, 1, -0.5
*EQUATION
3
1536, 2, 1.0, 540, 2, -0.5, 588, 2, -0.5
*EQUATION
3
1536, 3, 1.0, 540, 3, -0.5, 588, 3, -0.5
*EQUATION
3
1538, 1, 1.0, 585, 1, -0.5, 586, 1, -0.5
*EQUATION
3
1538, 2, 1.0, 585, 2, -0.5, 586, 2, -0.5
*EQUATION
3
1538, 3, 1.0, 585, 3, -0.5, 586, 3, -0.5
*EQUATION
3
1540, 1, 1.0, 587, 1, -0.5, 588, 1, -0.5
*EQUATION
3
1540, 2, 1.0, 587, 2, -0.5, 588, 2, -0.5
*EQUATION
3
1540, 3, 1.0, 587, 3, -0.5, 588, 3, -0.5
*EQUATION
5
1543, 1, 1.0, 534, 1, -0.25, 582, 1, -0.25, 591, 1, -0.25, 543, 1, -0.25
*EQUATION
5
1543, 2, 1.0, 534, 2, -0.25, 582, 2, -0.25, 591, 2, -0.25, 543, 2, -0.25
*EQUATION
5
1543, 3, 1.0, 534, 3, -0.25, 582, 3, -0.25, 591, 3, -0.25, 543, 3, -0.25
*EQUATION
3
1545, 1, 1.0, 543, 1, -0.5, 591, 1, -0.5
*EQUATION
3
1545, 2, 1.0, 543, 2, -0.5, 591, 2, -0.5
*EQUATION
3
1545, 3, 1.0, 543, 3, -0.5, 591, 3, -0.5
*EQUATION
3
1547, 1, 1.0, 582, 1, -0.5, 591, 1, -0.5
*EQUATION
3
1547, 2, 1.0, 582, 2, -0.5, 591, 2, -0.5
*EQUATION
3
1547, 3, 1.0, 582, 3, -0.5, 591, 3, -0.5
*EQUATION
5
1549, 1, 1.0, 538, 1, -0.25, 586, 1, -0.25, 593, 1, -0.25, 545, 1, -0.25
*EQUATION
5
1549, 2, 1.0, 538, 2, -0.25, 586, 2, -0.25, 593, 2, -0.25, 545, 2, -0.25
*EQUATION
5
1549, 3, 1.0, 538, 3, -0.25, 586, 3, -0.25, 593, 3, -0.25, 545, 3, -0.25
*EQUATION
5
1551, 1, 1.0, 540, 1, -0.25, 588, 1, -0.25, 594, 1, -0.25, 546, 1, -0.25
*EQUATION
5
1551, 2, 1.0, 540, 2, -0.25, 588, 2, -0.25, 594, 2, -0.25, 546, 2, -0.25
*EQUATION
5
1551, 3, 1.0, 540, 3, -0.25, 588, 3, -0.25, 594, 3, -0.25, 546, 3, -0.25
*EQUATION
3
1552, 1, 1.0, 545, 1, -0.5, 593, 1, -0.5
*EQUATION
3
1552, 2, 1.0, 545, 2, -0.5, 593, 2, -0.5
*EQUATION
3
1552, 3, 1.0, 545, 3, -0.5, 593, 3, -0.5
*EQUATION
3
1554, 1, 1.0, 546, 1, -0.5, 594, 1, -0.5
*EQUATION
3
1554, 2, 1.0, 546, 2, -0.5, 594, 2, -0.5
*EQUATION
3
1554, 3, 1.0, 546, 3, -0.5, 594, 3, -0.5
*EQUATION
3
1555, 1, 1.0, 586, 1, -0.5, 593, 1, -0.5
*EQUATION
3
1555, 2, 1.0, 586, 2, -0.5, 593, 2, -0.5
*EQUATION
3
1555, 3, 1.0, 586, 3, -0.5, 593, 3, -0.5
*EQUATION
3
1557, 1, 1.0, 588, 1, -0.5, 594, 1, -0.5
*EQUATION
3
1557, 2, 1.0, 588, 2, -0.5, 594, 2, -0.5
*EQUATION
3
1557, 3, 1.0, 588, 3, -0.5, 594, 3, -0.5
*EQUATION
3
1560, 1, 1.0, 581, 1, -0.5, 629, 1, -0.5
*EQUATION
3
1560, 2, 1.0, 581, 2, -0.5, 629, 2, -0.5
*EQUATION
3
1560, 3, 1.0, 581, 3, -0.5, 629, 3, -0.5
*EQUATION
5
1562, 1, 1.0, 581, 1, -0.25, 629, 1, -0.25, 630, 1, -0.25, 582, 1, -0.25
*EQUATION
5
1562, 2, 1.0, 581, 2, -0.25, 629, 2, -0.25, 630, 2, -0.25, 582, 2, -0.25
*EQUATION
5
1562, 3, 1.0, 581, 3, -0.25, 629, 3, -0.25, 630, 3, -0.25, 582, 3, -0.25
*EQUATION
3
1564, 1, 1.0, 582, 1, -0.5, 630, 1, -0.5
*EQUATION
3
1564, 2, 1.0, 582, 2, -0.5, 630, 2, -0.5
*EQUATION
3
1564, 3, 1.0, 582, 3, -0.5, 630, 3, -0.5
*EQUATION
3
1567, 1, 1.0, 629, 1, -0.5, 630, 1, -0.5
*EQUATION
3
1567, 2, 1.0, 629, 2, -0.5, 630, 2, -0.5
*EQUATION
3
1567, 3, 1.0, 629, 3, -0.5, 630, 3, -0.5
*EQUATION
3
1569, 1, 1.0, 585, 1, -0.5, 633, 1, -0.5
*EQUATION
3
1569, 2, 1.0, 585, 2, -0.5, 633, 2, -0.5
*EQUATION
3
1569, 3, 1.0, 585, 3, -0.5, 633, 3, -0.5
*EQUATION
3
1571, 1, 1.0, 587, 1, -0.5, 635, 1, -0.5
*EQUATION
3
1571, 2, 1.0, 587, 2, -0.5, 635, 2, -0.5
*EQUATION
3
1571, 3, 1.0, 587, 3, -0.5, 635, 3, -0.5
*EQUATION
5
1572, 1, 1.0, 585, 1, -0.25, 633, 1, -0.25, 634, 1, -0.25, 586, 1, -0.25
*EQUATION
5
1572, 2, 1.0, 585, 2, -0.25, 633, 2, -0.25, 634, 2, -0.25, 586, 2, -0.25
*EQUATION
5
1572, 3, 1.0, 585, 3, -0.25, 633, 3, -0.25, 634, 3, -0.25, 586, 3, -0.25
*EQUATION
5
1574, 1, 1.0, 587, 1, -0.25, 635, 1, -0.25, 636, 1, -0.25, 588, 1, -0.25
*EQUATION
5
1574, 2, 1.0, 587, 2, -0.25, 635, 2, -0.25, 636, 2, -0.25, 588, 2, -0.25
*EQUATION
5
1574, 3, 1.0, 587, 3, -0.25, 635, 3, -0.25, 636, 3, -0.25, 588, 3, -0.25
*EQUATION
3
1575, 1, 1.0, 586, 1, -0.5, 634, 1, -0.5
*EQUATION
3
1575, 2, 1.0, 586, 2, -0.5, 634, 2, -0.5
*EQUATION
3
1575, 3, 1.0, 586, 3, -0.5, 634, 3, -0.5
*EQUATION
3
1577, 1, 1.0, 588, 1, -0.5, 636, 1, -0.5
*EQUATION
3
1577, 2, 1.0, 588, 2, -0.5, 636, 2, -0.5
*EQUATION
3
1577, 3, 1.0, 588, 3, -0.5, 636, 3, -0.5
*EQUATION
3
1578, 1, 1.0, 633, 1, -0.5, 635, 1, -0.5
*EQUATION
3
1578, 2, 1.0, 633, 2, -0.5, 635, 2, -0.5
*EQUATION
3
1578, 3, 1.0, 633, 3, -0.5, 635, 3, -0.5
*EQUATION
3
1579, 1, 1.0, 633, 1, -0.5, 634, 1, -0.5
*EQUATION
3
1579, 2, 1.0, 633, 2, -0.5, 634, 2, -0.5
*EQUATION
3
1579, 3, 1.0, 633, 3, -0.5, 634, 3, -0.5
*EQUATION
5
1580, 1, 1.0, 633, 1, -0.25, 634, 1, -0.25, 636, 1, -0.25, 635, 1, -0.25
*EQUATION
5
1580, 2, 1.0, 633, 2, -0.25, 634, 2, -0.25, 636, 2, -0.25, 635, 2, -0.25
*EQUATION
5
1580, 3, 1.0, 633, 3, -0.25, 634, 3, -0.25, 636, 3, -0.25, 635, 3, -0.25
*EQUATION
3
1581, 1, 1.0, 635, 1, -0.5, 636, 1, -0.5
*EQUATION
3
1581, 2, 1.0, 635, 2, -0.5, 636, 2, -0.5
*EQUATION
3
1581, 3, 1.0, 635, 3, -0.5, 636, 3, -0.5
*EQUATION
3
1582, 1, 1.0, 634, 1, -0.5, 636, 1, -0.5
*EQUATION
3
1582, 2, 1.0, 634, 2, -0.5, 636, 2, -0.5
*EQUATION
3
1582, 3, 1.0, 634, 3, -0.5, 636, 3, -0.5
*EQUATION
5
1584, 1, 1.0, 582, 1, -0.25, 630, 1, -0.25, 639, 1, -0.25, 591, 1, -0.25
*EQUATION
5
1584, 2, 1.0, 582, 2, -0.25, 630, 2, -0.25, 639, 2, -0.25, 591, 2, -0.25
*EQUATION
5
1584, 3, 1.0, 582, 3, -0.25, 630, 3, -0.25, 639, 3, -0.25, 591, 3, -0.25
*EQUATION
3
1586, 1, 1.0, 591, 1, -0.5, 639, 1, -0.5
*EQUATION
3
1586, 2, 1.0, 591, 2, -0.5, 639, 2, -0.5
*EQUATION
3
1586, 3, 1.0, 591, 3, -0.5, 639, 3, -0.5
*EQUATION
3
1588, 1, 1.0, 630, 1, -0.5, 639, 1, -0.5
*EQUATION
3
1588, 2, 1.0, 630, 2, -0.5, 639, 2, -0.5
*EQUATION
3
1588, 3, 1.0, 630, 3, -0.5, 639, 3, -0.5
*EQUATION
5
1590, 1, 1.0, 586, 1, -0.25, 634, 1, -0.25, 641, 1, -0.25, 593, 1, -0.25
*EQUATION
5
1590, 2, 1.0, 586, 2, -0.25, 634, 2, -0.25, 641, 2, -0.25, 593, 2, -0.25
*EQUATION
5
1590, 3, 1.0, 586, 3, -0.25, 634, 3, -0.25, 641, 3, -0.25, 593, 3, -0.25
*EQUATION
5
1592, 1, 1.0, 588, 1, -0.25, 636, 1, -0.25, 642, 1, -0.25, 594, 1, -0.25
*EQUATION
5
1592, 2, 1.0, 588, 2, -0.25, 636, 2, -0.25, 642, 2, -0.25, 594, 2, -0.25
*EQUATION
5
1592, 3, 1.0, 588, 3, -0.25, 636, 3, -0.25, 642, 3, -0.25, 594, 3, -0.25
*EQUATION
3
1593, 1, 1.0, 593, 1, -0.5, 641, 1, -0.5
*EQUATION
3
1593, 2, 1.0, 593, 2, -0.5, 641, 2, -0.5
*EQUATION
3
1593, 3, 1.0, 593, 3, -0.5, 641, 3, -0.5
*EQUATION
3
1595, 1, 1.0, 594, 1, -0.5, 642, 1, -0.5
*EQUATION
3
1595, 2, 1.0, 594, 2, -0.5, 642, 2, -0.5
*EQUATION
3
1595, 3, 1.0, 594, 3, -0.5, 642, 3, -0.5
*EQUATION
3
1596, 1, 1.0, 634, 1, -0.5, 641, 1, -0.5
*EQUATION
3
1596, 2, 1.0, 634, 2, -0.5, 641, 2, -0.5
*EQUATION
3
1596, 3, 1.0, 634, 3, -0.5, 641, 3, -0.5
*EQUATION
5
1597, 1, 1.0, 634, 1, -0.25, 641, 1, -0.25, 642, 1, -0.25, 636, 1, -0.25
*EQUATION
5
1597, 2, 1.0, 634, 2, -0.25, 641, 2, -0.25, 642, 2, -0.25, 636, 2, -0.25
*EQUATION
5
1597, 3, 1.0, 634, 3, -0.25, 641, 3, -0.25, 642, 3, -0.25, 636, 3, -0.25
*EQUATION
3
1598, 1, 1.0, 636, 1, -0.5, 642, 1, -0.5
*EQUATION
3
1598, 2, 1.0, 636, 2, -0.5, 642, 2, -0.5
*EQUATION
3
1598, 3, 1.0, 636, 3, -0.5, 642, 3, -0.5
*EQUATION
3
1599, 1, 1.0, 641, 1, -0.5, 642, 1, -0.5
*EQUATION
3
1599, 2, 1.0, 641, 2, -0.5, 642, 2, -0.5
*EQUATION
3
1599, 3, 1.0, 641, 3, -0.5, 642, 3, -0.5
*EQUATION
3
1600, 1, 1.0, 1080, 1, -0.5, 1081, 1, -0.5
*EQUATION
3
1600, 2, 1.0, 1080, 2, -0.5, 1081, 2, -0.5
*EQUATION
3
1600, 3, 1.0, 1080, 3, -0.5, 1081, 3, -0.5
*EQUATION
3
1601, 1, 1.0, 1080, 1, -0.5, 1083, 1, -0.5
*EQUATION
3
1601, 2, 1.0, 1080, 2, -0.5, 1083, 2, -0.5
*EQUATION
3
1601, 3, 1.0, 1080, 3, -0.5, 1083, 3, -0.5
*EQUATION
5
1602, 1, 1.0, 1080, 1, -0.25, 1083, 1, -0.25, 1084, 1, -0.25, 1081, 1, -0.25
*EQUATION
5
1602, 2, 1.0, 1080, 2, -0.25, 1083, 2, -0.25, 1084, 2, -0.25, 1081, 2, -0.25
*EQUATION
5
1602, 3, 1.0, 1080, 3, -0.25, 1083, 3, -0.25, 1084, 3, -0.25, 1081, 3, -0.25
*EQUATION
3
1603, 1, 1.0, 1081, 1, -0.5, 1084, 1, -0.5
*EQUATION
3
1603, 2, 1.0, 1081, 2, -0.5, 1084, 2, -0.5
*EQUATION
3
1603, 3, 1.0, 1081, 3, -0.5, 1084, 3, -0.5
*EQUATION
3
1604, 1, 1.0, 1083, 1, -0.5, 1084, 1, -0.5
*EQUATION
3
1604, 2, 1.0, 1083, 2, -0.5, 1084, 2, -0.5
*EQUATION
3
1604, 3, 1.0, 1083, 3, -0.5, 1084, 3, -0.5
*EQUATION
3
1607, 1, 1.0, 1081, 1, -0.5, 1089, 1, -0.5
*EQUATION
3
1607, 2, 1.0, 1081, 2, -0.5, 1089, 2, -0.5
*EQUATION
3
1607, 3, 1.0, 1081, 3, -0.5, 1089, 3, -0.5
*EQUATION
5
1610, 1, 1.0, 1081, 1, -0.25, 1089, 1, -0.25, 1091, 1, -0.25, 1084, 1, -0.25
*EQUATION
5
1610, 2, 1.0, 1081, 2, -0.25, 1089, 2, -0.25, 1091, 2, -0.25, 1084, 2, -0.25
*EQUATION
5
1610, 3, 1.0, 1081, 3, -0.25, 1089, 3, -0.25, 1091, 3, -0.25, 1084, 3, -0.25
*EQUATION
3
1613, 1, 1.0, 1084, 1, -0.5, 1091, 1, -0.5
*EQUATION
3
1613, 2, 1.0, 1084, 2, -0.5, 1091, 2, -0.5
*EQUATION
3
1613, 3, 1.0, 1084, 3, -0.5, 1091, 3, -0.5
*EQUATION
3
1614, 1, 1.0, 673, 1, -0.5, 1089, 1, -0.5
*EQUATION
3
1614, 2, 1.0, 673, 2, -0.5, 1089, 2, -0.5
*EQUATION
3
1614, 3, 1.0, 673, 3, -0.5, 1089, 3, -0.5
*EQUATION
3
1615, 1, 1.0, 673, 1, -0.5, 1090, 1, -0.5
*EQUATION
3
1615, 2, 1.0, 673, 2, -0.5, 1090, 2, -0.5
*EQUATION
3
1615, 3, 1.0, 673, 3, -0.5, 1090, 3, -0.5
*EQUATION
5
1616, 1, 1.0, 673, 1, -0.25, 1090, 1, -0.25, 1091, 1, -0.25, 1089, 1, -0.25
*EQUATION
5
1616, 2, 1.0, 673, 2, -0.25, 1090, 2, -0.25, 1091, 2, -0.25, 1089, 2, -0.25
*EQUATION
5
1616, 3, 1.0, 673, 3, -0.25, 1090, 3, -0.25, 1091, 3, -0.25, 1089, 3, -0.25
*EQUATION
3
1617, 1, 1.0, 1089, 1, -0.5, 1091, 1, -0.5
*EQUATION
3
1617, 2, 1.0, 1089, 2, -0.5, 1091, 2, -0.5
*EQUATION
3
1617, 3, 1.0, 1089, 3, -0.5, 1091, 3, -0.5
*EQUATION
3
1618, 1, 1.0, 1090, 1, -0.5, 1091, 1, -0.5
*EQUATION
3
1618, 2, 1.0, 1090, 2, -0.5, 1091, 2, -0.5
*EQUATION
3
1618, 3, 1.0, 1090, 3, -0.5, 1091, 3, -0.5
*EQUATION
3
1619, 1, 1.0, 1083, 1, -0.5, 1086, 1, -0.5
*EQUATION
3
1619, 2, 1.0, 1083, 2, -0.5, 1086, 2, -0.5
*EQUATION
3
1619, 3, 1.0, 1083, 3, -0.5, 1086, 3, -0.5
*EQUATION
5
1620, 1, 1.0, 1083, 1, -0.25, 1086, 1, -0.25, 1087, 1, -0.25, 1084, 1, -0.25
*EQUATION
5
1620, 2, 1.0, 1083, 2, -0.25, 1086, 2, -0.25, 1087, 2, -0.25, 1084, 2, -0.25
*EQUATION
5
1620, 3, 1.0, 1083, 3, -0.25, 1086, 3, -0.25, 1087, 3, -0.25, 1084, 3, -0.25
*EQUATION
3
1621, 1, 1.0, 1084, 1, -0.5, 1087, 1, -0.5
*EQUATION
3
1621, 2, 1.0, 1084, 2, -0.5, 1087, 2, -0.5
*EQUATION
3
1621, 3, 1.0, 1084, 3, -0.5, 1087, 3, -0.5
*EQUATION
3
1622, 1, 1.0, 1086, 1, -0.5, 1087, 1, -0.5
*EQUATION
3
1622, 2, 1.0, 1086, 2, -0.5, 1087, 2, -0.5
*EQUATION
3
1622, 3, 1.0, 1086, 3, -0.5, 1087, 3, -0.5
*EQUATION
5
1625, 1, 1.0, 1084, 1, -0.25, 1091, 1, -0.25, 1093, 1, -0.25, 1087, 1, -0.25
*EQUATION
5
1625, 2, 1.0, 1084, 2, -0.25, 1091, 2, -0.25, 1093, 2, -0.25, 1087, 2, -0.25
*EQUATION
5
1625, 3, 1.0, 1084, 3, -0.25, 1091, 3, -0.25, 1093, 3, -0.25, 1087, 3, -0.25
*EQUATION
3
1628, 1, 1.0, 1087, 1, -0.5, 1093, 1, -0.5
*EQUATION
3
1628, 2, 1.0, 1087, 2, -0.5, 1093, 2, -0.5
*EQUATION
3
1628, 3, 1.0, 1087, 3, -0.5, 1093, 3, -0.5
*EQUATION
3
1629, 1, 1.0, 674, 1, -0.5, 1090, 1, -0.5
*EQUATION
3
1629, 2, 1.0, 674, 2, -0.5, 1090, 2, -0.5
*EQUATION
3
1629, 3, 1.0, 674, 3, -0.5, 1090, 3, -0.5
*EQUATION
5
1630, 1, 1.0, 1090, 1, -0.25, 674, 1, -0.25, 1093, 1, -0.25, 1091, 1, -0.25
*EQUATION
5
1630, 2, 1.0, 1090, 2, -0.25, 674, 2, -0.25, 1093, 2, -0.25, 1091, 2, -0.25
*EQUATION
5
1630, 3, 1.0, 1090, 3, -0.25, 674, 3, -0.25, 1093, 3, -0.25, 1091, 3, -0.25
*EQUATION
3
1631, 1, 1.0, 1091, 1, -0.5, 1093, 1, -0.5
*EQUATION
3
1631, 2, 1.0, 1091, 2, -0.5, 1093, 2, -0.5
*EQUATION
3
1631, 3, 1.0, 1091, 3, -0.5, 1093, 3, -0.5
*EQUATION
3
1632, 1, 1.0, 674, 1, -0.5, 1093, 1, -0.5
*EQUATION
3
1632, 2, 1.0, 674, 2, -0.5, 1093, 2, -0.5
*EQUATION
3
1632, 3, 1.0, 674, 3, -0.5, 1093, 3, -0.5
*EQUATION
3
1634, 1, 1.0, 629, 1, -0.5, 677, 1, -0.5
*EQUATION
3
1634, 2, 1.0, 629, 2, -0.5, 677, 2, -0.5
*EQUATION
3
1634, 3, 1.0, 629, 3, -0.5, 677, 3, -0.5
*EQUATION
5
1636, 1, 1.0, 629, 1, -0.25, 677, 1, -0.25, 678, 1, -0.25, 630, 1, -0.25
*EQUATION
5
1636, 2, 1.0, 629, 2, -0.25, 677, 2, -0.25, 678, 2, -0.25, 630, 2, -0.25
*EQUATION
5
1636, 3, 1.0, 629, 3, -0.25, 677, 3, -0.25, 678, 3, -0.25, 630, 3, -0.25
*EQUATION
3
1638, 1, 1.0, 630, 1, -0.5, 678, 1, -0.5
*EQUATION
3
1638, 2, 1.0, 630, 2, -0.5, 678, 2, -0.5
*EQUATION
3
1638, 3, 1.0, 630, 3, -0.5, 678, 3, -0.5
*EQUATION
3
1641, 1, 1.0, 677, 1, -0.5, 678, 1, -0.5
*EQUATION
3
1641, 2, 1.0, 677, 2, -0.5, 678, 2, -0.5
*EQUATION
3
1641, 3, 1.0, 677, 3, -0.5, 678, 3, -0.5
*EQUATION
3
1643, 1, 1.0, 1086, 1, -0.5, 1094, 1, -0.5
*EQUATION
3
1643, 2, 1.0, 1086, 2, -0.5, 1094, 2, -0.5
*EQUATION
3
1643, 3, 1.0, 1086, 3, -0.5, 1094, 3, -0.5
*EQUATION
5
1644, 1, 1.0, 1086, 1, -0.25, 1094, 1, -0.25, 1095, 1, -0.25, 1087, 1, -0.25
*EQUATION
5
1644, 2, 1.0, 1086, 2, -0.25, 1094, 2, -0.25, 1095, 2, -0.25, 1087, 2, -0.25
*EQUATION
5
1644, 3, 1.0, 1086, 3, -0.25, 1094, 3, -0.25, 1095, 3, -0.25, 1087, 3, -0.25
*EQUATION
3
1645, 1, 1.0, 1087, 1, -0.5, 1095, 1, -0.5
*EQUATION
3
1645, 2, 1.0, 1087, 2, -0.5, 1095, 2, -0.5
*EQUATION
3
1645, 3, 1.0, 1087, 3, -0.5, 1095, 3, -0.5
*EQUATION
3
1646, 1, 1.0, 1094, 1, -0.5, 1095, 1, -0.5
*EQUATION
3
1646, 2, 1.0, 1094, 2, -0.5, 1095, 2, -0.5
*EQUATION
3
1646, 3, 1.0, 1094, 3, -0.5, 1095, 3, -0.5
*EQUATION
5
1649, 1, 1.0, 1087, 1, -0.25, 1093, 1, -0.25, 1101, 1, -0.25, 1095, 1, -0.25
*EQUATION
5
1649, 2, 1.0, 1087, 2, -0.25, 1093, 2, -0.25, 1101, 2, -0.25, 1095, 2, -0.25
*EQUATION
5
1649, 3, 1.0, 1087, 3, -0.25, 1093, 3, -0.25, 1101, 3, -0.25, 1095, 3, -0.25
*EQUATION
3
1652, 1, 1.0, 1095, 1, -0.5, 1101, 1, -0.5
*EQUATION
3
1652, 2, 1.0, 1095, 2, -0.5, 1101, 2, -0.5
*EQUATION
3
1652, 3, 1.0, 1095, 3, -0.5, 1101, 3, -0.5
*EQUATION
3
1653, 1, 1.0, 674, 1, -0.5, 1100, 1, -0.5
*EQUATION
3
1653, 2, 1.0, 674, 2, -0.5, 1100, 2, -0.5
*EQUATION
3
1653, 3, 1.0, 674, 3, -0.5, 1100, 3, -0.5
*EQUATION
5
1654, 1, 1.0, 674, 1, -0.25, 1100, 1, -0.25, 1101, 1, -0.25, 1093, 1, -0.25
*EQUATION
5
1654, 2, 1.0, 674, 2, -0.25, 1100, 2, -0.25, 1101, 2, -0.25, 1093, 2, -0.25
*EQUATION
5
1654, 3, 1.0, 674, 3, -0.25, 1100, 3, -0.25, 1101, 3, -0.25, 1093, 3, -0.25
*EQUATION
3
1655, 1, 1.0, 1093, 1, -0.5, 1101, 1, -0.5
*EQUATION
3
1655, 2, 1.0, 1093, 2, -0.5, 1101, 2, -0.5
*EQUATION
3
1655, 3, 1.0, 1093, 3, -0.5, 1101, 3, -0.5
*EQUATION
3
1656, 1, 1.0, 1100, 1, -0.5, 1101, 1, -0.5
*EQUATION
3
1656, 2, 1.0, 1100, 2, -0.5, 1101, 2, -0.5
*EQUATION
3
1656, 3, 1.0, 1100, 3, -0.5, 1101, 3, -0.5
*EQUATION
3
1657, 1, 1.0, 1094, 1, -0.5, 1097, 1, -0.5
*EQUATION
3
1657, 2, 1.0, 1094, 2, -0.5, 1097, 2, -0.5
*EQUATION
3
1657, 3, 1.0, 1094, 3, -0.5, 1097, 3, -0.5
*EQUATION
5
1658, 1, 1.0, 1094, 1, -0.25, 1097, 1, -0.25, 1098, 1, -0.25, 1095, 1, -0.25
*EQUATION
5
1658, 2, 1.0, 1094, 2, -0.25, 1097, 2, -0.25, 1098, 2, -0.25, 1095, 2, -0.25
*EQUATION
5
1658, 3, 1.0, 1094, 3, -0.25, 1097, 3, -0.25, 1098, 3, -0.25, 1095, 3, -0.25
*EQUATION
3
1659, 1, 1.0, 1095, 1, -0.5, 1098, 1, -0.5
*EQUATION
3
1659, 2, 1.0, 1095, 2, -0.5, 1098, 2, -0.5
*EQUATION
3
1659, 3, 1.0, 1095, 3, -0.5, 1098, 3, -0.5
*EQUATION
3
1660, 1, 1.0, 1097, 1, -0.5, 1098, 1, -0.5
*EQUATION
3
1660, 2, 1.0, 1097, 2, -0.5, 1098, 2, -0.5
*EQUATION
3
1660, 3, 1.0, 1097, 3, -0.5, 1098, 3, -0.5
*EQUATION
5
1663, 1, 1.0, 1095, 1, -0.25, 1101, 1, -0.25, 1103, 1, -0.25, 1098, 1, -0.25
*EQUATION
5
1663, 2, 1.0, 1095, 2, -0.25, 1101, 2, -0.25, 1103, 2, -0.25, 1098, 2, -0.25
*EQUATION
5
1663, 3, 1.0, 1095, 3, -0.25, 1101, 3, -0.25, 1103, 3, -0.25, 1098, 3, -0.25
*EQUATION
3
1666, 1, 1.0, 1098, 1, -0.5, 1103, 1, -0.5
*EQUATION
3
1666, 2, 1.0, 1098, 2, -0.5, 1103, 2, -0.5
*EQUATION
3
1666, 3, 1.0, 1098, 3, -0.5, 1103, 3, -0.5
*EQUATION
3
1667, 1, 1.0, 685, 1, -0.5, 1100, 1, -0.5
*EQUATION
3
1667, 2, 1.0, 685, 2, -0.5, 1100, 2, -0.5
*EQUATION
3
1667, 3, 1.0, 685, 3, -0.5, 1100, 3, -0.5
*EQUATION
5
1668, 1, 1.0, 1100, 1, -0.25, 685, 1, -0.25, 1103, 1, -0.25, 1101, 1, -0.25
*EQUATION
5
1668, 2, 1.0, 1100, 2, -0.25, 685, 2, -0.25, 1103, 2, -0.25, 1101, 2, -0.25
*EQUATION
5
1668, 3, 1.0, 1100, 3, -0.25, 685, 3, -0.25, 1103, 3, -0.25, 1101, 3, -0.25
*EQUATION
3
1669, 1, 1.0, 1101, 1, -0.5, 1103, 1, -0.5
*EQUATION
3
1669, 2, 1.0, 1101, 2, -0.5, 1103, 2, -0.5
*EQUATION
3
1669, 3, 1.0, 1101, 3, -0.5, 1103, 3, -0.5
*EQUATION
3
1670, 1, 1.0, 685, 1, -0.5, 1103, 1, -0.5
*EQUATION
3
1670, 2, 1.0, 685, 2, -0.5, 1103, 2, -0.5
*EQUATION
3
1670, 3, 1.0, 685, 3, -0.5, 1103, 3, -0.5
*EQUATION
5
1672, 1, 1.0, 630, 1, -0.25, 678, 1, -0.25, 687, 1, -0.25, 639, 1, -0.25
*EQUATION
5
1672, 2, 1.0, 630, 2, -0.25, 678, 2, -0.25, 687, 2, -0.25, 639, 2, -0.25
*EQUATION
5
1672, 3, 1.0, 630, 3, -0.25, 678, 3, -0.25, 687, 3, -0.25, 639, 3, -0.25
*EQUATION
3
1674, 1, 1.0, 639, 1, -0.5, 687, 1, -0.5
*EQUATION
3
1674, 2, 1.0, 639, 2, -0.5, 687, 2, -0.5
*EQUATION
3
1674, 3, 1.0, 639, 3, -0.5, 687, 3, -0.5
*EQUATION
3
1676, 1, 1.0, 678, 1, -0.5, 687, 1, -0.5
*EQUATION
3
1676, 2, 1.0, 678, 2, -0.5, 687, 2, -0.5
*EQUATION
3
1676, 3, 1.0, 678, 3, -0.5, 687, 3, -0.5
*EQUATION
3
1679, 1, 1.0, 677, 1, -0.5, 725, 1, -0.5
*EQUATION
3
1679, 2, 1.0, 677, 2, -0.5, 725, 2, -0.5
*EQUATION
3
1679, 3, 1.0, 677, 3, -0.5, 725, 3, -0.5
*EQUATION
5
1681, 1, 1.0, 677, 1, -0.25, 725, 1, -0.25, 726, 1, -0.25, 678, 1, -0.25
*EQUATION
5
1681, 2, 1.0, 677, 2, -0.25, 725, 2, -0.25, 726, 2, -0.25, 678, 2, -0.25
*EQUATION
5
1681, 3, 1.0, 677, 3, -0.25, 725, 3, -0.25, 726, 3, -0.25, 678, 3, -0.25
*EQUATION
3
1683, 1, 1.0, 678, 1, -0.5, 726, 1, -0.5
*EQUATION
3
1683, 2, 1.0, 678, 2, -0.5, 726, 2, -0.5
*EQUATION
3
1683, 3, 1.0, 678, 3, -0.5, 726, 3, -0.5
*EQUATION
3
1684, 1, 1.0, 723, 1, -0.5, 725, 1, -0.5
*EQUATION
3
1684, 2, 1.0, 723, 2, -0.5, 725, 2, -0.5
*EQUATION
3
1684, 3, 1.0, 723, 3, -0.5, 725, 3, -0.5
*EQUATION
5
1685, 1, 1.0, 723, 1, -0.25, 724, 1, -0.25, 726, 1, -0.25, 725, 1, -0.25
*EQUATION
5
1685, 2, 1.0, 723, 2, -0.25, 724, 2, -0.25, 726, 2, -0.25, 725, 2, -0.25
*EQUATION
5
1685, 3, 1.0, 723, 3, -0.25, 724, 3, -0.25, 726, 3, -0.25, 725, 3, -0.25
*EQUATION
3
1686, 1, 1.0, 725, 1, -0.5, 726, 1, -0.5
*EQUATION
3
1686, 2, 1.0, 725, 2, -0.5, 726, 2, -0.5
*EQUATION
3
1686, 3, 1.0, 725, 3, -0.5, 726, 3, -0.5
*EQUATION
3
1687, 1, 1.0, 724, 1, -0.5, 726, 1, -0.5
*EQUATION
3
1687, 2, 1.0, 724, 2, -0.5, 726, 2, -0.5
*EQUATION
3
1687, 3, 1.0, 724, 3, -0.5, 726, 3, -0.5
*EQUATION
5
1689, 1, 1.0, 678, 1, -0.25, 726, 1, -0.25, 735, 1, -0.25, 687, 1, -0.25
*EQUATION
5
1689, 2, 1.0, 678, 2, -0.25, 726, 2, -0.25, 735, 2, -0.25, 687, 2, -0.25
*EQUATION
5
1689, 3, 1.0, 678, 3, -0.25, 726, 3, -0.25, 735, 3, -0.25, 687, 3, -0.25
*EQUATION
3
1691, 1, 1.0, 687, 1, -0.5, 735, 1, -0.5
*EQUATION
3
1691, 2, 1.0, 687, 2, -0.5, 735, 2, -0.5
*EQUATION
3
1691, 3, 1.0, 687, 3, -0.5, 735, 3, -0.5
*EQUATION
5
1692, 1, 1.0, 724, 1, -0.25, 734, 1, -0.25, 735, 1, -0.25, 726, 1, -0.25
*EQUATION
5
1692, 2, 1.0, 724, 2, -0.25, 734, 2, -0.25, 735, 2, -0.25, 726, 2, -0.25
*EQUATION
5
1692, 3, 1.0, 724, 3, -0.25, 734, 3, -0.25, 735, 3, -0.25, 726, 3, -0.25
*EQUATION
3
1693, 1, 1.0, 726, 1, -0.5, 735, 1, -0.5
*EQUATION
3
1693, 2, 1.0, 726, 2, -0.5, 735, 2, -0.5
*EQUATION
3
1693, 3, 1.0, 726, 3, -0.5, 735, 3, -0.5
*EQUATION
3
1694, 1, 1.0, 734, 1, -0.5, 735, 1, -0.5
*EQUATION
3
1694, 2, 1.0, 734, 2, -0.5, 735, 2, -0.5
*EQUATION
3
1694, 3, 1.0, 734, 3, -0.5, 735, 3, -0.5
*EQUATION
3
1697, 1, 1.0, 723, 1, -0.5, 771, 1, -0.5
*EQUATION
3
1697, 2, 1.0, 723, 2, -0.5, 771, 2, -0.5
*EQUATION
3
1697, 3, 1.0, 723, 3, -0.5, 771, 3, -0.5
*EQUATION
5
1700, 1, 1.0, 723, 1, -0.25, 771, 1, -0.25, 772, 1, -0.25, 724, 1, -0.25
*EQUATION
5
1700, 2, 1.0, 723, 2, -0.25, 771, 2, -0.25, 772, 2, -0.25, 724, 2, -0.25
*EQUATION
5
1700, 3, 1.0, 723, 3, -0.25, 771, 3, -0.25, 772, 3, -0.25, 724, 3, -0.25
*EQUATION
3
1703, 1, 1.0, 724, 1, -0.5, 772, 1, -0.5
*EQUATION
3
1703, 2, 1.0, 724, 2, -0.5, 772, 2, -0.5
*EQUATION
3
1703, 3, 1.0, 724, 3, -0.5, 772, 3, -0.5
*EQUATION
3
1704, 1, 1.0, 769, 1, -0.5, 771, 1, -0.5
*EQUATION
3
1704, 2, 1.0, 769, 2, -0.5, 771, 2, -0.5
*EQUATION
3
1704, 3, 1.0, 769, 3, -0.5, 771, 3, -0.5
*EQUATION
3
1705, 1, 1.0, 769, 1, -0.5, 770, 1, -0.5
*EQUATION
3
1705, 2, 1.0, 769, 2, -0.5, 770, 2, -0.5
*EQUATION
3
1705, 3, 1.0, 769, 3, -0.5, 770, 3, -0.5
*EQUATION
5
1706, 1, 1.0, 769, 1, -0.25, 770, 1, -0.25, 772, 1, -0.25, 771, 1, -0.25
*EQUATION
5
1706, 2, 1.0, 769, 2, -0.25, 770, 2, -0.25, 772, 2, -0.25, 771, 2, -0.25
*EQUATION
5
1706, 3, 1.0, 769, 3, -0.25, 770, 3, -0.25, 772, 3, -0.25, 771, 3, -0.25
*EQUATION
3
1707, 1, 1.0, 771, 1, -0.5, 772, 1, -0.5
*EQUATION
3
1707, 2, 1.0, 771, 2, -0.5, 772, 2, -0.5
*EQUATION
3
1707, 3, 1.0, 771, 3, -0.5, 772, 3, -0.5
*EQUATION
3
1708, 1, 1.0, 770, 1, -0.5, 772, 1, -0.5
*EQUATION
3
1708, 2, 1.0, 770, 2, -0.5, 772, 2, -0.5
*EQUATION
3
1708, 3, 1.0, 770, 3, -0.5, 772, 3, -0.5
*EQUATION
5
1711, 1, 1.0, 724, 1, -0.25, 772, 1, -0.25, 782, 1, -0.25, 734, 1, -0.25
*EQUATION
5
1711, 2, 1.0, 724, 2, -0.25, 772, 2, -0.25, 782, 2, -0.25, 734, 2, -0.25
*EQUATION
5
1711, 3, 1.0, 724, 3, -0.25, 772, 3, -0.25, 782, 3, -0.25, 734, 3, -0.25
*EQUATION
3
1714, 1, 1.0, 734, 1, -0.5, 782, 1, -0.5
*EQUATION
3
1714, 2, 1.0, 734, 2, -0.5, 782, 2, -0.5
*EQUATION
3
1714, 3, 1.0, 734, 3, -0.5, 782, 3, -0.5
*EQUATION
3
1715, 1, 1.0, 770, 1, -0.5, 781, 1, -0.5
*EQUATION
3
1715, 2, 1.0, 770, 2, -0.5, 781, 2, -0.5
*EQUATION
3
1715, 3, 1.0, 770, 3, -0.5, 781, 3, -0.5
*EQUATION
5
1716, 1, 1.0, 770, 1, -0.25, 781, 1, -0.25, 782, 1, -0.25, 772, 1, -0.25
*EQUATION
5
1716, 2, 1.0, 770, 2, -0.25, 781, 2, -0.25, 782, 2, -0.25, 772, 2, -0.25
*EQUATION
5
1716, 3, 1.0, 770, 3, -0.25, 781, 3, -0.25, 782, 3, -0.25, 772, 3, -0.25
*EQUATION
3
1717, 1, 1.0, 772, 1, -0.5, 782, 1, -0.5
*EQUATION
3
1717, 2, 1.0, 772, 2, -0.5, 782, 2, -0.5
*EQUATION
3
1717, 3, 1.0, 772, 3, -0.5, 782, 3, -0.5
*EQUATION
3
1718, 1, 1.0, 781, 1, -0.5, 782, 1, -0.5
*EQUATION
3
1718, 2, 1.0, 781, 2, -0.5, 782, 2, -0.5
*EQUATION
3
1718, 3, 1.0, 781, 3, -0.5, 782, 3, -0.5
*EQUATION
3
1719, 1, 1.0, 821, 1, -0.5, 823, 1, -0.5
*EQUATION
3
1719, 2, 1.0, 821, 2, -0.5, 823, 2, -0.5
*EQUATION
3
1719, 3, 1.0, 821, 3, -0.5, 823, 3, -0.5
*EQUATION
5
1720, 1, 1.0, 821, 1, -0.25, 822, 1, -0.25, 824, 1, -0.25, 823, 1, -0.25
*EQUATION
5
1720, 2, 1.0, 821, 2, -0.25, 822, 2, -0.25, 824, 2, -0.25, 823, 2, -0.25
*EQUATION
5
1720, 3, 1.0, 821, 3, -0.25, 822, 3, -0.25, 824, 3, -0.25, 823, 3, -0.25
*EQUATION
3
1721, 1, 1.0, 823, 1, -0.5, 824, 1, -0.5
*EQUATION
3
1721, 2, 1.0, 823, 2, -0.5, 824, 2, -0.5
*EQUATION
3
1721, 3, 1.0, 823, 3, -0.5, 824, 3, -0.5
*EQUATION
3
1722, 1, 1.0, 822, 1, -0.5, 824, 1, -0.5
*EQUATION
3
1722, 2, 1.0, 822, 2, -0.5, 824, 2, -0.5
*EQUATION
3
1722, 3, 1.0, 822, 3, -0.5, 824, 3, -0.5
*EQUATION
3
1724, 1, 1.0, 823, 1, -0.5, 871, 1, -0.5
*EQUATION
3
1724, 2, 1.0, 823, 2, -0.5, 871, 2, -0.5
*EQUATION
3
1724, 3, 1.0, 823, 3, -0.5, 871, 3, -0.5
*EQUATION
5
1726, 1, 1.0, 823, 1, -0.25, 871, 1, -0.25, 872, 1, -0.25, 824, 1, -0.25
*EQUATION
5
1726, 2, 1.0, 823, 2, -0.25, 871, 2, -0.25, 872, 2, -0.25, 824, 2, -0.25
*EQUATION
5
1726, 3, 1.0, 823, 3, -0.25, 871, 3, -0.25, 872, 3, -0.25, 824, 3, -0.25
*EQUATION
3
1728, 1, 1.0, 824, 1, -0.5, 872, 1, -0.5
*EQUATION
3
1728, 2, 1.0, 824, 2, -0.5, 872, 2, -0.5
*EQUATION
3
1728, 3, 1.0, 824, 3, -0.5, 872, 3, -0.5
*EQUATION
3
1731, 1, 1.0, 871, 1, -0.5, 872, 1, -0.5
*EQUATION
3
1731, 2, 1.0, 871, 2, -0.5, 872, 2, -0.5
*EQUATION
3
1731, 3, 1.0, 871, 3, -0.5, 872, 3, -0.5
*EQUATION
5
1733, 1, 1.0, 822, 1, -0.25, 831, 1, -0.25, 832, 1, -0.25, 824, 1, -0.25
*EQUATION
5
1733, 2, 1.0, 822, 2, -0.25, 831, 2, -0.25, 832, 2, -0.25, 824, 2, -0.25
*EQUATION
5
1733, 3, 1.0, 822, 3, -0.25, 831, 3, -0.25, 832, 3, -0.25, 824, 3, -0.25
*EQUATION
3
1734, 1, 1.0, 824, 1, -0.5, 832, 1, -0.5
*EQUATION
3
1734, 2, 1.0, 824, 2, -0.5, 832, 2, -0.5
*EQUATION
3
1734, 3, 1.0, 824, 3, -0.5, 832, 3, -0.5
*EQUATION
3
1735, 1, 1.0, 831, 1, -0.5, 832, 1, -0.5
*EQUATION
3
1735, 2, 1.0, 831, 2, -0.5, 832, 2, -0.5
*EQUATION
3
1735, 3, 1.0, 831, 3, -0.5, 832, 3, -0.5
*EQUATION
5
1737, 1, 1.0, 824, 1, -0.25, 872, 1, -0.25, 880, 1, -0.25, 832, 1, -0.25
*EQUATION
5
1737, 2, 1.0, 824, 2, -0.25, 872, 2, -0.25, 880, 2, -0.25, 832, 2, -0.25
*EQUATION
5
1737, 3, 1.0, 824, 3, -0.25, 872, 3, -0.25, 880, 3, -0.25, 832, 3, -0.25
*EQUATION
3
1739, 1, 1.0, 832, 1, -0.5, 880, 1, -0.5
*EQUATION
3
1739, 2, 1.0, 832, 2, -0.5, 880, 2, -0.5
*EQUATION
3
1739, 3, 1.0, 832, 3, -0.5, 880, 3, -0.5
*EQUATION
3
1741, 1, 1.0, 872, 1, -0.5, 880, 1, -0.5
*EQUATION
3
1741, 2, 1.0, 872, 2, -0.5, 880, 2, -0.5
*EQUATION
3
1741, 3, 1.0, 872, 3, -0.5, 880, 3, -0.5
*BOUNDARY
CLAMP, 1, 3, 0.0
*STEP
*STATIC
*CLOAD
887, 3, -454.545454545
888, 3, -454.545454545
891, 3, -454.545454545
894, 3, -454.545454545
896, 3, -454.545454545
898, 3, -454.545454545
900, 3, -454.545454545
903, 3, -454.545454545
906, 3, -454.545454545
909, 3, -454.545454545
912, 3, -454.545454545
*NODE FILE
U
*EL FILE
S, ENER
*NODE PRINT, NSET=TIP_TOP
U
*NODE PRINT, NSET=CLAMP
RF
*EL PRINT, ELSET=EALL
ELSE
*ENERGY PRINT
*END STEP
