*HEADING
T08 S-LIN hanging 8-split zz cycle 2
units: mm, N, s, MPa. Material is illustrative steel, not a coupon card.
E=210000.0 nu=0.3. load -5000.0 N on TIP_TOP.
*NODE, NSET=NALL
1, 0, -16, 0
2, 111.111111111, -15.4444444444, 6.94444444444
3, 111.111111111, 0, 6.94444444444
4, 0, 0, 0
5, 0, -16, 42
6, 111.111111111, -15.4444444444, 47.5555555556
7, 111.111111111, 0, 47.5555555556
8, 0, 0, 42
9, 0, -16, 84
10, 111.111111111, -15.4444444444, 88.1666666667
11, 111.111111111, 0, 88.1666666667
12, 0, 0, 84
13, 0, -16, 126
14, 111.111111111, -15.4444444444, 128.777777778
15, 111.111111111, 0, 128.777777778
16, 0, 0, 126
17, 0, -16, 168
18, 111.111111111, -15.4444444444, 169.388888889
19, 111.111111111, 0, 169.388888889
20, 0, 0, 168
** ... 2238 like lines cut
*ELEMENT, TYPE=C3D8, ELSET=EALL
1, 1, 2, 3, 4, 5, 6, 7, 8
2, 5, 6, 7, 8, 9, 10, 11, 12
3, 9, 10, 11, 12, 13, 14, 15, 16
4, 13, 14, 15, 16, 17, 18, 19, 20
5, 17, 18, 19, 20, 21, 22, 23, 24
6, 4, 3, 25, 26, 8, 7, 27, 28
7, 8, 7, 27, 28, 12, 11, 29, 30
8, 12, 11, 29, 30, 16, 15, 31, 32
9, 16, 15, 31, 32, 20, 19, 33, 34
10, 20, 19, 33, 34, 24, 23, 35, 36
11, 37, 38, 39, 40, 41, 42, 43, 44
12, 41, 42, 43, 44, 45, 46, 47, 48
13, 40, 39, 49, 50, 44, 43, 51, 52
14, 44, 43, 51, 52, 48, 47, 53, 54
15, 50, 49, 55, 56, 52, 51, 57, 58
16, 52, 51, 57, 58, 54, 53, 59, 60
17, 56, 55, 22, 21, 58, 57, 61, 62
18, 58, 57, 61, 62, 60, 59, 63, 64
19, 21, 22, 23, 24, 62, 61, 65, 66
20, 62, 61, 65, 66, 64, 63, 67, 68
** ... 1374 like lines cut
*NSET, NSET=CLAMP
1, 4, 5, 8, 9, 12, 13, 16, 17, 20, 21, 24, 26, 28, 30, 32
34, 36, 37, 40, 41, 44, 45, 48, 50, 52, 54, 56, 58, 60, 62, 64
66, 68, 70, 72, 74, 76, 78, 80, 82, 84, 86, 88, 90, 92, 94, 96
*NSET, NSET=TIP_TOP
887, 888, 891, 894, 896, 898, 900, 903, 906, 909, 912, 1452, 1485, 2187, 2210, 2233
2258
*MATERIAL, NAME=STEEL
*ELASTIC
210000, 0.3
*SOLID SECTION, ELSET=EALL, MATERIAL=STEEL
*EQUATION
3
913, 1, 1.0, 2, 1, -0.5, 6, 1, -0.5
*EQUATION
3
913, 2, 1.0, 2, 2, -0.5, 6, 2, -0.5
*EQUATION
3
913, 3, 1.0, 2, 3, -0.5, 6, 3, -0.5
*EQUATION
3
914, 1, 1.0, 2, 1, -0.5, 3, 1, -0.5
*EQUATION
3
914, 2, 1.0, 2, 2, -0.5, 3, 2, -0.5
*EQUATION
3
914, 3, 1.0, 2, 3, -0.5, 3, 3, -0.5
*EQUATION
5
915, 1, 1.0, 2, 1, -0.25, 3, 1, -0.25, 7, 1, -0.25, 6, 1, -0.25
*EQUATION
5
915, 2, 1.0, 2, 2, -0.25, 3, 2, -0.25, 7, 2, -0.25, 6, 2, -0.25
*EQUATION
5
915, 3, 1.0, 2, 3, -0.25, 3, 3, -0.25, 7, 3, -0.25, 6, 3, -0.25
*EQUATION
3
916, 1, 1.0, 6, 1, -0.5, 7, 1, -0.5
*EQUATION
3
916, 2, 1.0, 6, 2, -0.5, 7, 2, -0.5
*EQUATION
3
916, 3, 1.0, 6, 3, -0.5, 7, 3, -0.5
*EQUATION
3
917, 1, 1.0, 3, 1, -0.5, 7, 1, -0.5
*EQUATION
3
917, 2, 1.0, 3, 2, -0.5, 7, 2, -0.5
*EQUATION
3
917, 3, 1.0, 3, 3, -0.5, 7, 3, -0.5
*EQUATION
3
920, 1, 1.0, 6, 1, -0.5, 99, 1, -0.5
*EQUATION
3
920, 2, 1.0, 6, 2, -0.5, 99, 2, -0.5
*EQUATION
3
920, 3, 1.0, 6, 3, -0.5, 99, 3, -0.5
*EQUATION
5
923, 1, 1.0, 6, 1, -0.25, 99, 1, -0.25, 100, 1, -0.25, 7, 1, -0.25
*EQUATION
5
923, 2, 1.0, 6, 2, -0.25, 99, 2, -0.25, 100, 2, -0.25, 7, 2, -0.25
*EQUATION
5
923, 3, 1.0, 6, 3, -0.25, 99, 3, -0.25, 100, 3, -0.25, 7, 3, -0.25
*EQUATION
3
926, 1, 1.0, 7, 1, -0.5, 100, 1, -0.5
*EQUATION
3
926, 2, 1.0, 7, 2, -0.5, 100, 2, -0.5
*EQUATION
3
926, 3, 1.0, 7, 3, -0.5, 100, 3, -0.5
*EQUATION
3
930, 1, 1.0, 99, 1, -0.5, 100, 1, -0.5
*EQUATION
3
930, 2, 1.0, 99, 2, -0.5, 100, 2, -0.5
*EQUATION
3
930, 3, 1.0, 99, 3, -0.5, 100, 3, -0.5
*EQUATION
3
932, 1, 1.0, 3, 1, -0.5, 25, 1, -0.5
*EQUATION
3
932, 2, 1.0, 3, 2, -0.5, 25, 2, -0.5
*EQUATION
3
932, 3, 1.0, 3, 3, -0.5, 25, 3, -0.5
*EQUATION
5
933, 1, 1.0, 3, 1, -0.25, 25, 1, -0.25, 27, 1, -0.25, 7, 1, -0.25
*EQUATION
5
933, 2, 1.0, 3, 2, -0.25, 25, 2, -0.25, 27, 2, -0.25, 7, 2, -0.25
*EQUATION
5
933, 3, 1.0, 3, 3, -0.25, 25, 3, -0.25, 27, 3, -0.25, 7, 3, -0.25
*EQUATION
3
934, 1, 1.0, 7, 1, -0.5, 27, 1, -0.5
*EQUATION
3
934, 2, 1.0, 7, 2, -0.5, 27, 2, -0.5
*EQUATION
3
934, 3, 1.0, 7, 3, -0.5, 27, 3, -0.5
*EQUATION
3
935, 1, 1.0, 25, 1, -0.5, 27, 1, -0.5
*EQUATION
3
935, 2, 1.0, 25, 2, -0.5, 27, 2, -0.5
*EQUATION
3
935, 3, 1.0, 25, 3, -0.5, 27, 3, -0.5
*EQUATION
5
938, 1, 1.0, 7, 1, -0.25, 100, 1, -0.25, 110, 1, -0.25, 27, 1, -0.25
*EQUATION
5
938, 2, 1.0, 7, 2, -0.25, 100, 2, -0.25, 110, 2, -0.25, 27, 2, -0.25
*EQUATION
5
938, 3, 1.0, 7, 3, -0.25, 100, 3, -0.25, 110, 3, -0.25, 27, 3, -0.25
*EQUATION
3
941, 1, 1.0, 27, 1, -0.5, 110, 1, -0.5
*EQUATION
3
941, 2, 1.0, 27, 2, -0.5, 110, 2, -0.5
*EQUATION
3
941, 3, 1.0, 27, 3, -0.5, 110, 3, -0.5
*EQUATION
3
944, 1, 1.0, 100, 1, -0.5, 110, 1, -0.5
*EQUATION
3
944, 2, 1.0, 100, 2, -0.5, 110, 2, -0.5
*EQUATION
3
944, 3, 1.0, 100, 3, -0.5, 110, 3, -0.5
*EQUATION
3
949, 1, 1.0, 387, 1, -0.5, 388, 1, -0.5
*EQUATION
3
949, 2, 1.0, 387, 2, -0.5, 388, 2, -0.5
*EQUATION
3
949, 3, 1.0, 387, 3, -0.5, 388, 3, -0.5
*EQUATION
3
967, 1, 1.0, 388, 1, -0.5, 398, 1, -0.5
*EQUATION
3
967, 2, 1.0, 388, 2, -0.5, 398, 2, -0.5
*EQUATION
3
967, 3, 1.0, 388, 3, -0.5, 398, 3, -0.5
*EQUATION
3
1092, 1, 1.0, 635, 1, -0.5, 636, 1, -0.5
*EQUATION
3
1092, 2, 1.0, 635, 2, -0.5, 636, 2, -0.5
*EQUATION
3
1092, 3, 1.0, 635, 3, -0.5, 636, 3, -0.5
*EQUATION
3
1096, 1, 1.0, 635, 1, -0.5, 683, 1, -0.5
*EQUATION
3
1096, 2, 1.0, 635, 2, -0.5, 683, 2, -0.5
*EQUATION
3
1096, 3, 1.0, 635, 3, -0.5, 683, 3, -0.5
*EQUATION
5
1099, 1, 1.0, 635, 1, -0.25, 683, 1, -0.25, 684, 1, -0.25, 636, 1, -0.25
*EQUATION
5
1099, 2, 1.0, 635, 2, -0.25, 683, 2, -0.25, 684, 2, -0.25, 636, 2, -0.25
*EQUATION
5
1099, 3, 1.0, 635, 3, -0.25, 683, 3, -0.25, 684, 3, -0.25, 636, 3, -0.25
*EQUATION
3
1102, 1, 1.0, 636, 1, -0.5, 684, 1, -0.5
*EQUATION
3
1102, 2, 1.0, 636, 2, -0.5, 684, 2, -0.5
*EQUATION
3
1102, 3, 1.0, 636, 3, -0.5, 684, 3, -0.5
*EQUATION
3
1106, 1, 1.0, 683, 1, -0.5, 684, 1, -0.5
*EQUATION
3
1106, 2, 1.0, 683, 2, -0.5, 684, 2, -0.5
*EQUATION
3
1106, 3, 1.0, 683, 3, -0.5, 684, 3, -0.5
*EQUATION
3
1120, 1, 1.0, 636, 1, -0.5, 642, 1, -0.5
*EQUATION
3
1120, 2, 1.0, 636, 2, -0.5, 642, 2, -0.5
*EQUATION
3
1120, 3, 1.0, 636, 3, -0.5, 642, 3, -0.5
*EQUATION
5
1124, 1, 1.0, 636, 1, -0.25, 684, 1, -0.25, 690, 1, -0.25, 642, 1, -0.25
*EQUATION
5
1124, 2, 1.0, 636, 2, -0.25, 684, 2, -0.25, 690, 2, -0.25, 642, 2, -0.25
*EQUATION
5
1124, 3, 1.0, 636, 3, -0.25, 684, 3, -0.25, 690, 3, -0.25, 642, 3, -0.25
*EQUATION
3
1127, 1, 1.0, 642, 1, -0.5, 690, 1, -0.5
*EQUATION
3
1127, 2, 1.0, 642, 2, -0.5, 690, 2, -0.5
*EQUATION
3
1127, 3, 1.0, 642, 3, -0.5, 690, 3, -0.5
*EQUATION
3
1130, 1, 1.0, 684, 1, -0.5, 690, 1, -0.5
*EQUATION
3
1130, 2, 1.0, 684, 2, -0.5, 690, 2, -0.5
*EQUATION
3
1130, 3, 1.0, 684, 3, -0.5, 690, 3, -0.5
*EQUATION
3
1148, 1, 1.0, 683, 1, -0.5, 731, 1, -0.5
*EQUATION
3
1148, 2, 1.0, 683, 2, -0.5, 731, 2, -0.5
*EQUATION
3
1148, 3, 1.0, 683, 3, -0.5, 731, 3, -0.5
*EQUATION
5
1151, 1, 1.0, 683, 1, -0.25, 731, 1, -0.25, 732, 1, -0.25, 684, 1, -0.25
*EQUATION
5
1151, 2, 1.0, 683, 2, -0.25, 731, 2, -0.25, 732, 2, -0.25, 684, 2, -0.25
*EQUATION
5
1151, 3, 1.0, 683, 3, -0.25, 731, 3, -0.25, 732, 3, -0.25, 684, 3, -0.25
*EQUATION
3
1154, 1, 1.0, 684, 1, -0.5, 732, 1, -0.5
*EQUATION
3
1154, 2, 1.0, 684, 2, -0.5, 732, 2, -0.5
*EQUATION
3
1154, 3, 1.0, 684, 3, -0.5, 732, 3, -0.5
*EQUATION
3
1158, 1, 1.0, 731, 1, -0.5, 732, 1, -0.5
*EQUATION
3
1158, 2, 1.0, 731, 2, -0.5, 732, 2, -0.5
*EQUATION
3
1158, 3, 1.0, 731, 3, -0.5, 732, 3, -0.5
*EQUATION
5
1172, 1, 1.0, 684, 1, -0.25, 732, 1, -0.25, 738, 1, -0.25, 690, 1, -0.25
*EQUATION
5
1172, 2, 1.0, 684, 2, -0.25, 732, 2, -0.25, 738, 2, -0.25, 690, 2, -0.25
*EQUATION
5
1172, 3, 1.0, 684, 3, -0.25, 732, 3, -0.25, 738, 3, -0.25, 690, 3, -0.25
*EQUATION
3
1175, 1, 1.0, 690, 1, -0.5, 738, 1, -0.5
*EQUATION
3
1175, 2, 1.0, 690, 2, -0.5, 738, 2, -0.5
*EQUATION
3
1175, 3, 1.0, 690, 3, -0.5, 738, 3, -0.5
*EQUATION
3
1178, 1, 1.0, 732, 1, -0.5, 738, 1, -0.5
*EQUATION
3
1178, 2, 1.0, 732, 2, -0.5, 738, 2, -0.5
*EQUATION
3
1178, 3, 1.0, 732, 3, -0.5, 738, 3, -0.5
*EQUATION
3
1196, 1, 1.0, 731, 1, -0.5, 779, 1, -0.5
*EQUATION
3
1196, 2, 1.0, 731, 2, -0.5, 779, 2, -0.5
*EQUATION
3
1196, 3, 1.0, 731, 3, -0.5, 779, 3, -0.5
*EQUATION
5
1199, 1, 1.0, 731, 1, -0.25, 779, 1, -0.25, 780, 1, -0.25, 732, 1, -0.25
*EQUATION
5
1199, 2, 1.0, 731, 2, -0.25, 779, 2, -0.25, 780, 2, -0.25, 732, 2, -0.25
*EQUATION
5
1199, 3, 1.0, 731, 3, -0.25, 779, 3, -0.25, 780, 3, -0.25, 732, 3, -0.25
*EQUATION
3
1202, 1, 1.0, 732, 1, -0.5, 780, 1, -0.5
*EQUATION
3
1202, 2, 1.0, 732, 2, -0.5, 780, 2, -0.5
*EQUATION
3
1202, 3, 1.0, 732, 3, -0.5, 780, 3, -0.5
*EQUATION
3
1206, 1, 1.0, 779, 1, -0.5, 780, 1, -0.5
*EQUATION
3
1206, 2, 1.0, 779, 2, -0.5, 780, 2, -0.5
*EQUATION
3
1206, 3, 1.0, 779, 3, -0.5, 780, 3, -0.5
*EQUATION
5
1220, 1, 1.0, 732, 1, -0.25, 780, 1, -0.25, 786, 1, -0.25, 738, 1, -0.25
*EQUATION
5
1220, 2, 1.0, 732, 2, -0.25, 780, 2, -0.25, 786, 2, -0.25, 738, 2, -0.25
*EQUATION
5
1220, 3, 1.0, 732, 3, -0.25, 780, 3, -0.25, 786, 3, -0.25, 738, 3, -0.25
*EQUATION
3
1223, 1, 1.0, 738, 1, -0.5, 786, 1, -0.5
*EQUATION
3
1223, 2, 1.0, 738, 2, -0.5, 786, 2, -0.5
*EQUATION
3
1223, 3, 1.0, 738, 3, -0.5, 786, 3, -0.5
*EQUATION
3
1226, 1, 1.0, 780, 1, -0.5, 786, 1, -0.5
*EQUATION
3
1226, 2, 1.0, 780, 2, -0.5, 786, 2, -0.5
*EQUATION
3
1226, 3, 1.0, 780, 3, -0.5, 786, 3, -0.5
*EQUATION
3
1272, 1, 1.0, 779, 1, -0.5, 827, 1, -0.5
*EQUATION
3
1272, 2, 1.0, 779, 2, -0.5, 827, 2, -0.5
*EQUATION
3
1272, 3, 1.0, 779, 3, -0.5, 827, 3, -0.5
*EQUATION
5
1275, 1, 1.0, 779, 1, -0.25, 827, 1, -0.25, 828, 1, -0.25, 780, 1, -0.25
*EQUATION
5
1275, 2, 1.0, 779, 2, -0.25, 827, 2, -0.25, 828, 2, -0.25, 780, 2, -0.25
*EQUATION
5
1275, 3, 1.0, 779, 3, -0.25, 827, 3, -0.25, 828, 3, -0.25, 780, 3, -0.25
*EQUATION
3
1278, 1, 1.0, 780, 1, -0.5, 828, 1, -0.5
*EQUATION
3
1278, 2, 1.0, 780, 2, -0.5, 828, 2, -0.5
*EQUATION
3
1278, 3, 1.0, 780, 3, -0.5, 828, 3, -0.5
*EQUATION
3
1282, 1, 1.0, 827, 1, -0.5, 828, 1, -0.5
*EQUATION
3
1282, 2, 1.0, 827, 2, -0.5, 828, 2, -0.5
*EQUATION
3
1282, 3, 1.0, 827, 3, -0.5, 828, 3, -0.5
*EQUATION
5
1316, 1, 1.0, 780, 1, -0.25, 828, 1, -0.25, 834, 1, -0.25, 786, 1, -0.25
*EQUATION
5
1316, 2, 1.0, 780, 2, -0.25, 828, 2, -0.25, 834, 2, -0.25, 786, 2, -0.25
*EQUATION
5
1316, 3, 1.0, 780, 3, -0.25, 828, 3, -0.25, 834, 3, -0.25, 786, 3, -0.25
*EQUATION
3
1319, 1, 1.0, 786, 1, -0.5, 834, 1, -0.5
*EQUATION
3
1319, 2, 1.0, 786, 2, -0.5, 834, 2, -0.5
*EQUATION
3
1319, 3, 1.0, 786, 3, -0.5, 834, 3, -0.5
*EQUATION
3
1322, 1, 1.0, 828, 1, -0.5, 834, 1, -0.5
*EQUATION
3
1322, 2, 1.0, 828, 2, -0.5, 834, 2, -0.5
*EQUATION
3
1322, 3, 1.0, 828, 3, -0.5, 834, 3, -0.5
*EQUATION
3
1372, 1, 1.0, 827, 1, -0.5, 875, 1, -0.5
*EQUATION
3
1372, 2, 1.0, 827, 2, -0.5, 875, 2, -0.5
*EQUATION
3
1372, 3, 1.0, 827, 3, -0.5, 875, 3, -0.5
*EQUATION
5
1374, 1, 1.0, 827, 1, -0.25, 875, 1, -0.25, 876, 1, -0.25, 828, 1, -0.25
*EQUATION
5
1374, 2, 1.0, 827, 2, -0.25, 875, 2, -0.25, 876, 2, -0.25, 828, 2, -0.25
*EQUATION
5
1374, 3, 1.0, 827, 3, -0.25, 875, 3, -0.25, 876, 3, -0.25, 828, 3, -0.25
*EQUATION
3
1376, 1, 1.0, 828, 1, -0.5, 876, 1, -0.5
*EQUATION
3
1376, 2, 1.0, 828, 2, -0.5, 876, 2, -0.5
*EQUATION
3
1376, 3, 1.0, 828, 3, -0.5, 876, 3, -0.5
*EQUATION
3
1379, 1, 1.0, 875, 1, -0.5, 876, 1, -0.5
*EQUATION
3
1379, 2, 1.0, 875, 2, -0.5, 876, 2, -0.5
*EQUATION
3
1379, 3, 1.0, 875, 3, -0.5, 876, 3, -0.5
*EQUATION
5
1415, 1, 1.0, 828, 1, -0.25, 876, 1, -0.25, 882, 1, -0.25, 834, 1, -0.25
*EQUATION
5
1415, 2, 1.0, 828, 2, -0.25, 876, 2, -0.25, 882, 2, -0.25, 834, 2, -0.25
*EQUATION
5
1415, 3, 1.0, 828, 3, -0.25, 876, 3, -0.25, 882, 3, -0.25, 834, 3, -0.25
*EQUATION
3
1417, 1, 1.0, 834, 1, -0.5, 882, 1, -0.5
*EQUATION
3
1417, 2, 1.0, 834, 2, -0.5, 882, 2, -0.5
*EQUATION
3
1417, 3, 1.0, 834, 3, -0.5, 882, 3, -0.5
*EQUATION
3
1419, 1, 1.0, 876, 1, -0.5, 882, 1, -0.5
*EQUATION
3
1419, 2, 1.0, 876, 2, -0.5, 882, 2, -0.5
*EQUATION
3
1419, 3, 1.0, 876, 3, -0.5, 882, 3, -0.5
*EQUATION
3
1425, 1, 1.0, 836, 1, -0.5, 838, 1, -0.5
*EQUATION
3
1425, 2, 1.0, 836, 2, -0.5, 838, 2, -0.5
*EQUATION
3
1425, 3, 1.0, 836, 3, -0.5, 838, 3, -0.5
*EQUATION
3
1443, 1, 1.0, 838, 1, -0.5, 840, 1, -0.5
*EQUATION
3
1443, 2, 1.0, 838, 2, -0.5, 840, 2, -0.5
*EQUATION
3
1443, 3, 1.0, 838, 3, -0.5, 840, 3, -0.5
*EQUATION
3
1454, 1, 1.0, 859, 1, -0.5, 860, 1, -0.5
*EQUATION
3
1454, 2, 1.0, 859, 2, -0.5, 860, 2, -0.5
*EQUATION
3
1454, 3, 1.0, 859, 3, -0.5, 860, 3, -0.5
*EQUATION
3
1473, 1, 1.0, 860, 1, -0.5, 861, 1, -0.5
*EQUATION
3
1473, 2, 1.0, 860, 2, -0.5, 861, 2, -0.5
*EQUATION
3
1473, 3, 1.0, 860, 3, -0.5, 861, 3, -0.5
*EQUATION
3
1489, 1, 1.0, 99, 1, -0.5, 147, 1, -0.5
*EQUATION
3
1489, 2, 1.0, 99, 2, -0.5, 147, 2, -0.5
*EQUATION
3
1489, 3, 1.0, 99, 3, -0.5, 147, 3, -0.5
*EQUATION
5
1492, 1, 1.0, 99, 1, -0.25, 147, 1, -0.25, 148, 1, -0.25, 100, 1, -0.25
*EQUATION
5
1492, 2, 1.0, 99, 2, -0.25, 147, 2, -0.25, 148, 2, -0.25, 100, 2, -0.25
*EQUATION
5
1492, 3, 1.0, 99, 3, -0.25, 147, 3, -0.25, 148, 3, -0.25, 100, 3, -0.25
*EQUATION
3
1495, 1, 1.0, 100, 1, -0.5, 148, 1, -0.5
*EQUATION
3
1495, 2, 1.0, 100, 2, -0.5, 148, 2, -0.5
*EQUATION
3
1495, 3, 1.0, 100, 3, -0.5, 148, 3, -0.5
*EQUATION
3
1496, 1, 1.0, 145, 1, -0.5, 147, 1, -0.5
*EQUATION
3
1496, 2, 1.0, 145, 2, -0.5, 147, 2, -0.5
*EQUATION
3
1496, 3, 1.0, 145, 3, -0.5, 147, 3, -0.5
*EQUATION
3
1497, 1, 1.0, 145, 1, -0.5, 146, 1, -0.5
*EQUATION
3
1497, 2, 1.0, 145, 2, -0.5, 146, 2, -0.5
*EQUATION
3
1497, 3, 1.0, 145, 3, -0.5, 146, 3, -0.5
*EQUATION
5
1498, 1, 1.0, 145, 1, -0.25, 146, 1, -0.25, 148, 1, -0.25, 147, 1, -0.25
*EQUATION
5
1498, 2, 1.0, 145, 2, -0.25, 146, 2, -0.25, 148, 2, -0.25, 147, 2, -0.25
*EQUATION
5
1498, 3, 1.0, 145, 3, -0.25, 146, 3, -0.25, 148, 3, -0.25, 147, 3, -0.25
*EQUATION
3
1499, 1, 1.0, 147, 1, -0.5, 148, 1, -0.5
*EQUATION
3
1499, 2, 1.0, 147, 2, -0.5, 148, 2, -0.5
*EQUATION
3
1499, 3, 1.0, 147, 3, -0.5, 148, 3, -0.5
*EQUATION
3
1500, 1, 1.0, 146, 1, -0.5, 148, 1, -0.5
*EQUATION
3
1500, 2, 1.0, 146, 2, -0.5, 148, 2, -0.5
*EQUATION
3
1500, 3, 1.0, 146, 3, -0.5, 148, 3, -0.5
*EQUATION
5
1503, 1, 1.0, 100, 1, -0.25, 148, 1, -0.25, 158, 1, -0.25, 110, 1, -0.25
*EQUATION
5
1503, 2, 1.0, 100, 2, -0.25, 148, 2, -0.25, 158, 2, -0.25, 110, 2, -0.25
*EQUATION
5
1503, 3, 1.0, 100, 3, -0.25, 148, 3, -0.25, 158, 3, -0.25, 110, 3, -0.25
*EQUATION
3
1506, 1, 1.0, 110, 1, -0.5, 158, 1, -0.5
*EQUATION
3
1506, 2, 1.0, 110, 2, -0.5, 158, 2, -0.5
*EQUATION
3
1506, 3, 1.0, 110, 3, -0.5, 158, 3, -0.5
*EQUATION
3
1507, 1, 1.0, 146, 1, -0.5, 157, 1, -0.5
*EQUATION
3
1507, 2, 1.0, 146, 2, -0.5, 157, 2, -0.5
*EQUATION
3
1507, 3, 1.0, 146, 3, -0.5, 157, 3, -0.5
*EQUATION
5
1508, 1, 1.0, 146, 1, -0.25, 157, 1, -0.25, 158, 1, -0.25, 148, 1, -0.25
*EQUATION
5
1508, 2, 1.0, 146, 2, -0.25, 157, 2, -0.25, 158, 2, -0.25, 148, 2, -0.25
*EQUATION
5
1508, 3, 1.0, 146, 3, -0.25, 157, 3, -0.25, 158, 3, -0.25, 148, 3, -0.25
*EQUATION
3
1509, 1, 1.0, 148, 1, -0.5, 158, 1, -0.5
*EQUATION
3
1509, 2, 1.0, 148, 2, -0.5, 158, 2, -0.5
*EQUATION
3
1509, 3, 1.0, 148, 3, -0.5, 158, 3, -0.5
*EQUATION
3
1510, 1, 1.0, 157, 1, -0.5, 158, 1, -0.5
*EQUATION
3
1510, 2, 1.0, 157, 2, -0.5, 158, 2, -0.5
*EQUATION
3
1510, 3, 1.0, 157, 3, -0.5, 158, 3, -0.5
*EQUATION
3
1511, 1, 1.0, 193, 1, -0.5, 195, 1, -0.5
*EQUATION
3
1511, 2, 1.0, 193, 2, -0.5, 195, 2, -0.5
*EQUATION
3
1511, 3, 1.0, 193, 3, -0.5, 195, 3, -0.5
*EQUATION
3
1512, 1, 1.0, 193, 1, -0.5, 194, 1, -0.5
*EQUATION
3
1512, 2, 1.0, 193, 2, -0.5, 194, 2, -0.5
*EQUATION
3
1512, 3, 1.0, 193, 3, -0.5, 194, 3, -0.5
*EQUATION
5
1513, 1, 1.0, 193, 1, -0.25, 194, 1, -0.25, 196, 1, -0.25, 195, 1, -0.25
*EQUATION
5
1513, 2, 1.0, 193, 2, -0.25, 194, 2, -0.25, 196, 2, -0.25, 195, 2, -0.25
*EQUATION
5
1513, 3, 1.0, 193, 3, -0.25, 194, 3, -0.25, 196, 3, -0.25, 195, 3, -0.25
*EQUATION
3
1514, 1, 1.0, 195, 1, -0.5, 196, 1, -0.5
*EQUATION
3
1514, 2, 1.0, 195, 2, -0.5, 196, 2, -0.5
*EQUATION
3
1514, 3, 1.0, 195, 3, -0.5, 196, 3, -0.5
*EQUATION
3
1515, 1, 1.0, 194, 1, -0.5, 196, 1, -0.5
*EQUATION
3
1515, 2, 1.0, 194, 2, -0.5, 196, 2, -0.5
*EQUATION
3
1515, 3, 1.0, 194, 3, -0.5, 196, 3, -0.5
*EQUATION
3
1518, 1, 1.0, 195, 1, -0.5, 243, 1, -0.5
*EQUATION
3
1518, 2, 1.0, 195, 2, -0.5, 243, 2, -0.5
*EQUATION
3
1518, 3, 1.0, 195, 3, -0.5, 243, 3, -0.5
*EQUATION
5
1521, 1, 1.0, 195, 1, -0.25, 243, 1, -0.25, 244, 1, -0.25, 196, 1, -0.25
*EQUATION
5
1521, 2, 1.0, 195, 2, -0.25, 243, 2, -0.25, 244, 2, -0.25, 196, 2, -0.25
*EQUATION
5
1521, 3, 1.0, 195, 3, -0.25, 243, 3, -0.25, 244, 3, -0.25, 196, 3, -0.25
*EQUATION
3
1524, 1, 1.0, 196, 1, -0.5, 244, 1, -0.5
*EQUATION
3
1524, 2, 1.0, 196, 2, -0.5, 244, 2, -0.5
*EQUATION
3
1524, 3, 1.0, 196, 3, -0.5, 244, 3, -0.5
*EQUATION
3
1528, 1, 1.0, 243, 1, -0.5, 244, 1, -0.5
*EQUATION
3
1528, 2, 1.0, 243, 2, -0.5, 244, 2, -0.5
*EQUATION
3
1528, 3, 1.0, 243, 3, -0.5, 244, 3, -0.5
*EQUATION
3
1530, 1, 1.0, 194, 1, -0.5, 205, 1, -0.5
*EQUATION
3
1530, 2, 1.0, 194, 2, -0.5, 205, 2, -0.5
*EQUATION
3
1530, 3, 1.0, 194, 3, -0.5, 205, 3, -0.5
*EQUATION
5
1531, 1, 1.0, 194, 1, -0.25, 205, 1, -0.25, 206, 1, -0.25, 196, 1, -0.25
*EQUATION
5
1531, 2, 1.0, 194, 2, -0.25, 205, 2, -0.25, 206, 2, -0.25, 196, 2, -0.25
*EQUATION
5
1531, 3, 1.0, 194, 3, -0.25, 205, 3, -0.25, 206, 3, -0.25, 196, 3, -0.25
*EQUATION
3
1532, 1, 1.0, 196, 1, -0.5, 206, 1, -0.5
*EQUATION
3
1532, 2, 1.0, 196, 2, -0.5, 206, 2, -0.5
*EQUATION
3
1532, 3, 1.0, 196, 3, -0.5, 206, 3, -0.5
*EQUATION
3
1533, 1, 1.0, 205, 1, -0.5, 206, 1, -0.5
*EQUATION
3
1533, 2, 1.0, 205, 2, -0.5, 206, 2, -0.5
*EQUATION
3
1533, 3, 1.0, 205, 3, -0.5, 206, 3, -0.5
*EQUATION
5
1536, 1, 1.0, 196, 1, -0.25, 244, 1, -0.25, 254, 1, -0.25, 206, 1, -0.25
*EQUATION
5
1536, 2, 1.0, 196, 2, -0.25, 244, 2, -0.25, 254, 2, -0.25, 206, 2, -0.25
*EQUATION
5
1536, 3, 1.0, 196, 3, -0.25, 244, 3, -0.25, 254, 3, -0.25, 206, 3, -0.25
*EQUATION
3
1539, 1, 1.0, 206, 1, -0.5, 254, 1, -0.5
*EQUATION
3
1539, 2, 1.0, 206, 2, -0.5, 254, 2, -0.5
*EQUATION
3
1539, 3, 1.0, 206, 3, -0.5, 254, 3, -0.5
*EQUATION
3
1542, 1, 1.0, 244, 1, -0.5, 254, 1, -0.5
*EQUATION
3
1542, 2, 1.0, 244, 2, -0.5, 254, 2, -0.5
*EQUATION
3
1542, 3, 1.0, 244, 3, -0.5, 254, 3, -0.5
*EQUATION
3
1546, 1, 1.0, 243, 1, -0.5, 291, 1, -0.5
*EQUATION
3
1546, 2, 1.0, 243, 2, -0.5, 291, 2, -0.5
*EQUATION
3
1546, 3, 1.0, 243, 3, -0.5, 291, 3, -0.5
*EQUATION
5
1549, 1, 1.0, 243, 1, -0.25, 291, 1, -0.25, 292, 1, -0.25, 244, 1, -0.25
*EQUATION
5
1549, 2, 1.0, 243, 2, -0.25, 291, 2, -0.25, 292, 2, -0.25, 244, 2, -0.25
*EQUATION
5
1549, 3, 1.0, 243, 3, -0.25, 291, 3, -0.25, 292, 3, -0.25, 244, 3, -0.25
*EQUATION
3
1552, 1, 1.0, 244, 1, -0.5, 292, 1, -0.5
*EQUATION
3
1552, 2, 1.0, 244, 2, -0.5, 292, 2, -0.5
*EQUATION
3
1552, 3, 1.0, 244, 3, -0.5, 292, 3, -0.5
*EQUATION
3
1556, 1, 1.0, 291, 1, -0.5, 292, 1, -0.5
*EQUATION
3
1556, 2, 1.0, 291, 2, -0.5, 292, 2, -0.5
*EQUATION
3
1556, 3, 1.0, 291, 3, -0.5, 292, 3, -0.5
*EQUATION
5
1560, 1, 1.0, 244, 1, -0.25, 292, 1, -0.25, 302, 1, -0.25, 254, 1, -0.25
*EQUATION
5
1560, 2, 1.0, 244, 2, -0.25, 292, 2, -0.25, 302, 2, -0.25, 254, 2, -0.25
*EQUATION
5
1560, 3, 1.0, 244, 3, -0.25, 292, 3, -0.25, 302, 3, -0.25, 254, 3, -0.25
*EQUATION
3
1563, 1, 1.0, 254, 1, -0.5, 302, 1, -0.5
*EQUATION
3
1563, 2, 1.0, 254, 2, -0.5, 302, 2, -0.5
*EQUATION
3
1563, 3, 1.0, 254, 3, -0.5, 302, 3, -0.5
*EQUATION
3
1566, 1, 1.0, 292, 1, -0.5, 302, 1, -0.5
*EQUATION
3
1566, 2, 1.0, 292, 2, -0.5, 302, 2, -0.5
*EQUATION
3
1566, 3, 1.0, 292, 3, -0.5, 302, 3, -0.5
*EQUATION
3
1570, 1, 1.0, 291, 1, -0.5, 339, 1, -0.5
*EQUATION
3
1570, 2, 1.0, 291, 2, -0.5, 339, 2, -0.5
*EQUATION
3
1570, 3, 1.0, 291, 3, -0.5, 339, 3, -0.5
*EQUATION
5
1573, 1, 1.0, 291, 1, -0.25, 339, 1, -0.25, 340, 1, -0.25, 292, 1, -0.25
*EQUATION
5
1573, 2, 1.0, 291, 2, -0.25, 339, 2, -0.25, 340, 2, -0.25, 292, 2, -0.25
*EQUATION
5
1573, 3, 1.0, 291, 3, -0.25, 339, 3, -0.25, 340, 3, -0.25, 292, 3, -0.25
*EQUATION
3
1576, 1, 1.0, 292, 1, -0.5, 340, 1, -0.5
*EQUATION
3
1576, 2, 1.0, 292, 2, -0.5, 340, 2, -0.5
*EQUATION
3
1576, 3, 1.0, 292, 3, -0.5, 340, 3, -0.5
*EQUATION
3
1580, 1, 1.0, 339, 1, -0.5, 340, 1, -0.5
*EQUATION
3
1580, 2, 1.0, 339, 2, -0.5, 340, 2, -0.5
*EQUATION
3
1580, 3, 1.0, 339, 3, -0.5, 340, 3, -0.5
*EQUATION
5
1584, 1, 1.0, 292, 1, -0.25, 340, 1, -0.25, 350, 1, -0.25, 302, 1, -0.25
*EQUATION
5
1584, 2, 1.0, 292, 2, -0.25, 340, 2, -0.25, 350, 2, -0.25, 302, 2, -0.25
*EQUATION
5
1584, 3, 1.0, 292, 3, -0.25, 340, 3, -0.25, 350, 3, -0.25, 302, 3, -0.25
*EQUATION
3
1587, 1, 1.0, 302, 1, -0.5, 350, 1, -0.5
*EQUATION
3
1587, 2, 1.0, 302, 2, -0.5, 350, 2, -0.5
*EQUATION
3
1587, 3, 1.0, 302, 3, -0.5, 350, 3, -0.5
*EQUATION
3
1590, 1, 1.0, 340, 1, -0.5, 350, 1, -0.5
*EQUATION
3
1590, 2, 1.0, 340, 2, -0.5, 350, 2, -0.5
*EQUATION
3
1590, 3, 1.0, 340, 3, -0.5, 350, 3, -0.5
*EQUATION
3
1594, 1, 1.0, 339, 1, -0.5, 387, 1, -0.5
*EQUATION
3
1594, 2, 1.0, 339, 2, -0.5, 387, 2, -0.5
*EQUATION
3
1594, 3, 1.0, 339, 3, -0.5, 387, 3, -0.5
*EQUATION
5
1597, 1, 1.0, 339, 1, -0.25, 387, 1, -0.25, 388, 1, -0.25, 340, 1, -0.25
*EQUATION
5
1597, 2, 1.0, 339, 2, -0.25, 387, 2, -0.25, 388, 2, -0.25, 340, 2, -0.25
*EQUATION
5
1597, 3, 1.0, 339, 3, -0.25, 387, 3, -0.25, 388, 3, -0.25, 340, 3, -0.25
*EQUATION
3
1600, 1, 1.0, 340, 1, -0.5, 388, 1, -0.5
*EQUATION
3
1600, 2, 1.0, 340, 2, -0.5, 388, 2, -0.5
*EQUATION
3
1600, 3, 1.0, 340, 3, -0.5, 388, 3, -0.5
*EQUATION
5
1603, 1, 1.0, 340, 1, -0.25, 388, 1, -0.25, 398, 1, -0.25, 350, 1, -0.25
*EQUATION
5
1603, 2, 1.0, 340, 2, -0.25, 388, 2, -0.25, 398, 2, -0.25, 350, 2, -0.25
*EQUATION
5
1603, 3, 1.0, 340, 3, -0.25, 388, 3, -0.25, 398, 3, -0.25, 350, 3, -0.25
*EQUATION
3
1606, 1, 1.0, 350, 1, -0.5, 398, 1, -0.5
*EQUATION
3
1606, 2, 1.0, 350, 2, -0.5, 398, 2, -0.5
*EQUATION
3
1606, 3, 1.0, 350, 3, -0.5, 398, 3, -0.5
*EQUATION
3
1607, 1, 1.0, 387, 1, -0.5, 389, 1, -0.5
*EQUATION
3
1607, 2, 1.0, 387, 2, -0.5, 389, 2, -0.5
*EQUATION
3
1607, 3, 1.0, 387, 3, -0.5, 389, 3, -0.5
*EQUATION
5
1608, 1, 1.0, 387, 1, -0.25, 388, 1, -0.25, 390, 1, -0.25, 389, 1, -0.25
*EQUATION
5
1608, 2, 1.0, 387, 2, -0.25, 388, 2, -0.25, 390, 2, -0.25, 389, 2, -0.25
*EQUATION
5
1608, 3, 1.0, 387, 3, -0.25, 388, 3, -0.25, 390, 3, -0.25, 389, 3, -0.25
*EQUATION
3
1609, 1, 1.0, 389, 1, -0.5, 390, 1, -0.5
*EQUATION
3
1609, 2, 1.0, 389, 2, -0.5, 390, 2, -0.5
*EQUATION
3
1609, 3, 1.0, 389, 3, -0.5, 390, 3, -0.5
*EQUATION
3
1610, 1, 1.0, 388, 1, -0.5, 390, 1, -0.5
*EQUATION
3
1610, 2, 1.0, 388, 2, -0.5, 390, 2, -0.5
*EQUATION
3
1610, 3, 1.0, 388, 3, -0.5, 390, 3, -0.5
*EQUATION
3
1612, 1, 1.0, 389, 1, -0.5, 437, 1, -0.5
*EQUATION
3
1612, 2, 1.0, 389, 2, -0.5, 437, 2, -0.5
*EQUATION
3
1612, 3, 1.0, 389, 3, -0.5, 437, 3, -0.5
*EQUATION
5
1614, 1, 1.0, 389, 1, -0.25, 437, 1, -0.25, 438, 1, -0.25, 390, 1, -0.25
*EQUATION
5
1614, 2, 1.0, 389, 2, -0.25, 437, 2, -0.25, 438, 2, -0.25, 390, 2, -0.25
*EQUATION
5
1614, 3, 1.0, 389, 3, -0.25, 437, 3, -0.25, 438, 3, -0.25, 390, 3, -0.25
*EQUATION
3
1616, 1, 1.0, 390, 1, -0.5, 438, 1, -0.5
*EQUATION
3
1616, 2, 1.0, 390, 2, -0.5, 438, 2, -0.5
*EQUATION
3
1616, 3, 1.0, 390, 3, -0.5, 438, 3, -0.5
*EQUATION
3
1619, 1, 1.0, 437, 1, -0.5, 438, 1, -0.5
*EQUATION
3
1619, 2, 1.0, 437, 2, -0.5, 438, 2, -0.5
*EQUATION
3
1619, 3, 1.0, 437, 3, -0.5, 438, 3, -0.5
*EQUATION
5
1621, 1, 1.0, 388, 1, -0.25, 398, 1, -0.25, 399, 1, -0.25, 390, 1, -0.25
*EQUATION
5
1621, 2, 1.0, 388, 2, -0.25, 398, 2, -0.25, 399, 2, -0.25, 390, 2, -0.25
*EQUATION
5
1621, 3, 1.0, 388, 3, -0.25, 398, 3, -0.25, 399, 3, -0.25, 390, 3, -0.25
*EQUATION
3
1622, 1, 1.0, 390, 1, -0.5, 399, 1, -0.5
*EQUATION
3
1622, 2, 1.0, 390, 2, -0.5, 399, 2, -0.5
*EQUATION
3
1622, 3, 1.0, 390, 3, -0.5, 399, 3, -0.5
*EQUATION
3
1623, 1, 1.0, 398, 1, -0.5, 399, 1, -0.5
*EQUATION
3
1623, 2, 1.0, 398, 2, -0.5, 399, 2, -0.5
*EQUATION
3
1623, 3, 1.0, 398, 3, -0.5, 399, 3, -0.5
*EQUATION
5
1625, 1, 1.0, 390, 1, -0.25, 438, 1, -0.25, 447, 1, -0.25, 399, 1, -0.25
*EQUATION
5
1625, 2, 1.0, 390, 2, -0.25, 438, 2, -0.25, 447, 2, -0.25, 399, 2, -0.25
*EQUATION
5
1625, 3, 1.0, 390, 3, -0.25, 438, 3, -0.25, 447, 3, -0.25, 399, 3, -0.25
*EQUATION
3
1627, 1, 1.0, 399, 1, -0.5, 447, 1, -0.5
*EQUATION
3
1627, 2, 1.0, 399, 2, -0.5, 447, 2, -0.5
*EQUATION
3
1627, 3, 1.0, 399, 3, -0.5, 447, 3, -0.5
*EQUATION
3
1629, 1, 1.0, 438, 1, -0.5, 447, 1, -0.5
*EQUATION
3
1629, 2, 1.0, 438, 2, -0.5, 447, 2, -0.5
*EQUATION
3
1629, 3, 1.0, 438, 3, -0.5, 447, 3, -0.5
*EQUATION
3
1632, 1, 1.0, 437, 1, -0.5, 485, 1, -0.5
*EQUATION
3
1632, 2, 1.0, 437, 2, -0.5, 485, 2, -0.5
*EQUATION
3
1632, 3, 1.0, 437, 3, -0.5, 485, 3, -0.5
*EQUATION
5
1634, 1, 1.0, 437, 1, -0.25, 485, 1, -0.25, 486, 1, -0.25, 438, 1, -0.25
*EQUATION
5
1634, 2, 1.0, 437, 2, -0.25, 485, 2, -0.25, 486, 2, -0.25, 438, 2, -0.25
*EQUATION
5
1634, 3, 1.0, 437, 3, -0.25, 485, 3, -0.25, 486, 3, -0.25, 438, 3, -0.25
*EQUATION
3
1636, 1, 1.0, 438, 1, -0.5, 486, 1, -0.5
*EQUATION
3
1636, 2, 1.0, 438, 2, -0.5, 486, 2, -0.5
*EQUATION
3
1636, 3, 1.0, 438, 3, -0.5, 486, 3, -0.5
*EQUATION
3
1639, 1, 1.0, 485, 1, -0.5, 486, 1, -0.5
*EQUATION
3
1639, 2, 1.0, 485, 2, -0.5, 486, 2, -0.5
*EQUATION
3
1639, 3, 1.0, 485, 3, -0.5, 486, 3, -0.5
*EQUATION
3
1641, 1, 1.0, 441, 1, -0.5, 443, 1, -0.5
*EQUATION
3
1641, 2, 1.0, 441, 2, -0.5, 443, 2, -0.5
*EQUATION
3
1641, 3, 1.0, 441, 3, -0.5, 443, 3, -0.5
*EQUATION
3
1642, 1, 1.0, 441, 1, -0.5, 442, 1, -0.5
*EQUATION
3
1642, 2, 1.0, 441, 2, -0.5, 442, 2, -0.5
*EQUATION
3
1642, 3, 1.0, 441, 3, -0.5, 442, 3, -0.5
*EQUATION
5
1643, 1, 1.0, 441, 1, -0.25, 442, 1, -0.25, 444, 1, -0.25, 443, 1, -0.25
*EQUATION
5
1643, 2, 1.0, 441, 2, -0.25, 442, 2, -0.25, 444, 2, -0.25, 443, 2, -0.25
*EQUATION
5
1643, 3, 1.0, 441, 3, -0.25, 442, 3, -0.25, 444, 3, -0.25, 443, 3, -0.25
*EQUATION
3
1644, 1, 1.0, 443, 1, -0.5, 444, 1, -0.5
*EQUATION
3
1644, 2, 1.0, 443, 2, -0.5, 444, 2, -0.5
*EQUATION
3
1644, 3, 1.0, 443, 3, -0.5, 444, 3, -0.5
*EQUATION
3
1645, 1, 1.0, 442, 1, -0.5, 444, 1, -0.5
*EQUATION
3
1645, 2, 1.0, 442, 2, -0.5, 444, 2, -0.5
*EQUATION
3
1645, 3, 1.0, 442, 3, -0.5, 444, 3, -0.5
*EQUATION
3
1646, 1, 1.0, 441, 1, -0.5, 489, 1, -0.5
*EQUATION
3
1646, 2, 1.0, 441, 2, -0.5, 489, 2, -0.5
*EQUATION
3
1646, 3, 1.0, 441, 3, -0.5, 489, 3, -0.5
*EQUATION
3
1648, 1, 1.0, 443, 1, -0.5, 491, 1, -0.5
*EQUATION
3
1648, 2, 1.0, 443, 2, -0.5, 491, 2, -0.5
*EQUATION
3
1648, 3, 1.0, 443, 3, -0.5, 491, 3, -0.5
*EQUATION
5
1649, 1, 1.0, 441, 1, -0.25, 489, 1, -0.25, 490, 1, -0.25, 442, 1, -0.25
*EQUATION
5
1649, 2, 1.0, 441, 2, -0.25, 489, 2, -0.25, 490, 2, -0.25, 442, 2, -0.25
*EQUATION
5
1649, 3, 1.0, 441, 3, -0.25, 489, 3, -0.25, 490, 3, -0.25, 442, 3, -0.25
*EQUATION
5
1651, 1, 1.0, 443, 1, -0.25, 491, 1, -0.25, 492, 1, -0.25, 444, 1, -0.25
*EQUATION
5
1651, 2, 1.0, 443, 2, -0.25, 491, 2, -0.25, 492, 2, -0.25, 444, 2, -0.25
*EQUATION
5
1651, 3, 1.0, 443, 3, -0.25, 491, 3, -0.25, 492, 3, -0.25, 444, 3, -0.25
*EQUATION
3
1652, 1, 1.0, 442, 1, -0.5, 490, 1, -0.5
*EQUATION
3
1652, 2, 1.0, 442, 2, -0.5, 490, 2, -0.5
*EQUATION
3
1652, 3, 1.0, 442, 3, -0.5, 490, 3, -0.5
*EQUATION
3
1654, 1, 1.0, 444, 1, -0.5, 492, 1, -0.5
*EQUATION
3
1654, 2, 1.0, 444, 2, -0.5, 492, 2, -0.5
*EQUATION
3
1654, 3, 1.0, 444, 3, -0.5, 492, 3, -0.5
*EQUATION
3
1656, 1, 1.0, 489, 1, -0.5, 490, 1, -0.5
*EQUATION
3
1656, 2, 1.0, 489, 2, -0.5, 490, 2, -0.5
*EQUATION
3
1656, 3, 1.0, 489, 3, -0.5, 490, 3, -0.5
*EQUATION
3
1658, 1, 1.0, 491, 1, -0.5, 492, 1, -0.5
*EQUATION
3
1658, 2, 1.0, 491, 2, -0.5, 492, 2, -0.5
*EQUATION
3
1658, 3, 1.0, 491, 3, -0.5, 492, 3, -0.5
*EQUATION
5
1661, 1, 1.0, 438, 1, -0.25, 486, 1, -0.25, 495, 1, -0.25, 447, 1, -0.25
*EQUATION
5
1661, 2, 1.0, 438, 2, -0.25, 486, 2, -0.25, 495, 2, -0.25, 447, 2, -0.25
*EQUATION
5
1661, 3, 1.0, 438, 3, -0.25, 486, 3, -0.25, 495, 3, -0.25, 447, 3, -0.25
*EQUATION
3
1663, 1, 1.0, 447, 1, -0.5, 495, 1, -0.5
*EQUATION
3
1663, 2, 1.0, 447, 2, -0.5, 495, 2, -0.5
*EQUATION
3
1663, 3, 1.0, 447, 3, -0.5, 495, 3, -0.5
*EQUATION
3
1665, 1, 1.0, 486, 1, -0.5, 495, 1, -0.5
*EQUATION
3
1665, 2, 1.0, 486, 2, -0.5, 495, 2, -0.5
*EQUATION
3
1665, 3, 1.0, 486, 3, -0.5, 495, 3, -0.5
*EQUATION
3
1667, 1, 1.0, 442, 1, -0.5, 449, 1, -0.5
*EQUATION
3
1667, 2, 1.0, 442, 2, -0.5, 449, 2, -0.5
*EQUATION
3
1667, 3, 1.0, 442, 3, -0.5, 449, 3, -0.5
*EQUATION
5
1668, 1, 1.0, 442, 1, -0.25, 449, 1, -0.25, 450, 1, -0.25, 444, 1, -0.25
*EQUATION
5
1668, 2, 1.0, 442, 2, -0.25, 449, 2, -0.25, 450, 2, -0.25, 444, 2, -0.25
*EQUATION
5
1668, 3, 1.0, 442, 3, -0.25, 449, 3, -0.25, 450, 3, -0.25, 444, 3, -0.25
*EQUATION
3
1669, 1, 1.0, 444, 1, -0.5, 450, 1, -0.5
*EQUATION
3
1669, 2, 1.0, 444, 2, -0.5, 450, 2, -0.5
*EQUATION
3
1669, 3, 1.0, 444, 3, -0.5, 450, 3, -0.5
*EQUATION
3
1670, 1, 1.0, 449, 1, -0.5, 450, 1, -0.5
*EQUATION
3
1670, 2, 1.0, 449, 2, -0.5, 450, 2, -0.5
*EQUATION
3
1670, 3, 1.0, 449, 3, -0.5, 450, 3, -0.5
*EQUATION
5
1671, 1, 1.0, 442, 1, -0.25, 490, 1, -0.25, 497, 1, -0.25, 449, 1, -0.25
*EQUATION
5
1671, 2, 1.0, 442, 2, -0.25, 490, 2, -0.25, 497, 2, -0.25, 449, 2, -0.25
*EQUATION
5
1671, 3, 1.0, 442, 3, -0.25, 490, 3, -0.25, 497, 3, -0.25, 449, 3, -0.25
*EQUATION
5
1673, 1, 1.0, 444, 1, -0.25, 492, 1, -0.25, 498, 1, -0.25, 450, 1, -0.25
*EQUATION
5
1673, 2, 1.0, 444, 2, -0.25, 492, 2, -0.25, 498, 2, -0.25, 450, 2, -0.25
*EQUATION
5
1673, 3, 1.0, 444, 3, -0.25, 492, 3, -0.25, 498, 3, -0.25, 450, 3, -0.25
*EQUATION
3
1674, 1, 1.0, 449, 1, -0.5, 497, 1, -0.5
*EQUATION
3
1674, 2, 1.0, 449, 2, -0.5, 497, 2, -0.5
*EQUATION
3
1674, 3, 1.0, 449, 3, -0.5, 497, 3, -0.5
*EQUATION
3
1676, 1, 1.0, 450, 1, -0.5, 498, 1, -0.5
*EQUATION
3
1676, 2, 1.0, 450, 2, -0.5, 498, 2, -0.5
*EQUATION
3
1676, 3, 1.0, 450, 3, -0.5, 498, 3, -0.5
*EQUATION
3
1677, 1, 1.0, 490, 1, -0.5, 497, 1, -0.5
*EQUATION
3
1677, 2, 1.0, 490, 2, -0.5, 497, 2, -0.5
*EQUATION
3
1677, 3, 1.0, 490, 3, -0.5, 497, 3, -0.5
*EQUATION
3
1679, 1, 1.0, 492, 1, -0.5, 498, 1, -0.5
*EQUATION
3
1679, 2, 1.0, 492, 2, -0.5, 498, 2, -0.5
*EQUATION
3
1679, 3, 1.0, 492, 3, -0.5, 498, 3, -0.5
*EQUATION
3
1682, 1, 1.0, 485, 1, -0.5, 533, 1, -0.5
*EQUATION
3
1682, 2, 1.0, 485, 2, -0.5, 533, 2, -0.5
*EQUATION
3
1682, 3, 1.0, 485, 3, -0.5, 533, 3, -0.5
*EQUATION
5
1684, 1, 1.0, 485, 1, -0.25, 533, 1, -0.25, 534, 1, -0.25, 486, 1, -0.25
*EQUATION
5
1684, 2, 1.0, 485, 2, -0.25, 533, 2, -0.25, 534, 2, -0.25, 486, 2, -0.25
*EQUATION
5
1684, 3, 1.0, 485, 3, -0.25, 533, 3, -0.25, 534, 3, -0.25, 486, 3, -0.25
*EQUATION
3
1686, 1, 1.0, 486, 1, -0.5, 534, 1, -0.5
*EQUATION
3
1686, 2, 1.0, 486, 2, -0.5, 534, 2, -0.5
*EQUATION
3
1686, 3, 1.0, 486, 3, -0.5, 534, 3, -0.5
*EQUATION
3
1689, 1, 1.0, 533, 1, -0.5, 534, 1, -0.5
*EQUATION
3
1689, 2, 1.0, 533, 2, -0.5, 534, 2, -0.5
*EQUATION
3
1689, 3, 1.0, 533, 3, -0.5, 534, 3, -0.5
*EQUATION
3
1691, 1, 1.0, 489, 1, -0.5, 537, 1, -0.5
*EQUATION
3
1691, 2, 1.0, 489, 2, -0.5, 537, 2, -0.5
*EQUATION
3
1691, 3, 1.0, 489, 3, -0.5, 537, 3, -0.5
*EQUATION
3
1693, 1, 1.0, 491, 1, -0.5, 539, 1, -0.5
*EQUATION
3
1693, 2, 1.0, 491, 2, -0.5, 539, 2, -0.5
*EQUATION
3
1693, 3, 1.0, 491, 3, -0.5, 539, 3, -0.5
*EQUATION
5
1694, 1, 1.0, 489, 1, -0.25, 537, 1, -0.25, 538, 1, -0.25, 490, 1, -0.25
*EQUATION
5
1694, 2, 1.0, 489, 2, -0.25, 537, 2, -0.25, 538, 2, -0.25, 490, 2, -0.25
*EQUATION
5
1694, 3, 1.0, 489, 3, -0.25, 537, 3, -0.25, 538, 3, -0.25, 490, 3, -0.25
*EQUATION
5
1696, 1, 1.0, 491, 1, -0.25, 539, 1, -0.25, 540, 1, -0.25, 492, 1, -0.25
*EQUATION
5
1696, 2, 1.0, 491, 2, -0.25, 539, 2, -0.25, 540, 2, -0.25, 492, 2, -0.25
*EQUATION
5
1696, 3, 1.0, 491, 3, -0.25, 539, 3, -0.25, 540, 3, -0.25, 492, 3, -0.25
*EQUATION
3
1697, 1, 1.0, 490, 1, -0.5, 538, 1, -0.5
*EQUATION
3
1697, 2, 1.0, 490, 2, -0.5, 538, 2, -0.5
*EQUATION
3
1697, 3, 1.0, 490, 3, -0.5, 538, 3, -0.5
*EQUATION
3
1699, 1, 1.0, 492, 1, -0.5, 540, 1, -0.5
*EQUATION
3
1699, 2, 1.0, 492, 2, -0.5, 540, 2, -0.5
*EQUATION
3
1699, 3, 1.0, 492, 3, -0.5, 540, 3, -0.5
*EQUATION
3
1701, 1, 1.0, 537, 1, -0.5, 538, 1, -0.5
*EQUATION
3
1701, 2, 1.0, 537, 2, -0.5, 538, 2, -0.5
*EQUATION
3
1701, 3, 1.0, 537, 3, -0.5, 538, 3, -0.5
*EQUATION
3
1703, 1, 1.0, 539, 1, -0.5, 540, 1, -0.5
*EQUATION
3
1703, 2, 1.0, 539, 2, -0.5, 540, 2, -0.5
*EQUATION
3
1703, 3, 1.0, 539, 3, -0.5, 540, 3, -0.5
*EQUATION
5
1706, 1, 1.0, 486, 1, -0.25, 534, 1, -0.25, 543, 1, -0.25, 495, 1, -0.25
*EQUATION
5
1706, 2, 1.0, 486, 2, -0.25, 534, 2, -0.25, 543, 2, -0.25, 495, 2, -0.25
*EQUATION
5
1706, 3, 1.0, 486, 3, -0.25, 534, 3, -0.25, 543, 3, -0.25, 495, 3, -0.25
*EQUATION
3
1708, 1, 1.0, 495, 1, -0.5, 543, 1, -0.5
*EQUATION
3
1708, 2, 1.0, 495, 2, -0.5, 543, 2, -0.5
*EQUATION
3
1708, 3, 1.0, 495, 3, -0.5, 543, 3, -0.5
*EQUATION
3
1710, 1, 1.0, 534, 1, -0.5, 543, 1, -0.5
*EQUATION
3
1710, 2, 1.0, 534, 2, -0.5, 543, 2, -0.5
*EQUATION
3
1710, 3, 1.0, 534, 3, -0.5, 543, 3, -0.5
*EQUATION
5
1712, 1, 1.0, 490, 1, -0.25, 538, 1, -0.25, 545, 1, -0.25, 497, 1, -0.25
*EQUATION
5
1712, 2, 1.0, 490, 2, -0.25, 538, 2, -0.25, 545, 2, -0.25, 497, 2, -0.25
*EQUATION
5
1712, 3, 1.0, 490, 3, -0.25, 538, 3, -0.25, 545, 3, -0.25, 497, 3, -0.25
*EQUATION
5
1714, 1, 1.0, 492, 1, -0.25, 540, 1, -0.25, 546, 1, -0.25, 498, 1, -0.25
*EQUATION
5
1714, 2, 1.0, 492, 2, -0.25, 540, 2, -0.25, 546, 2, -0.25, 498, 2, -0.25
*EQUATION
5
1714, 3, 1.0, 492, 3, -0.25, 540, 3, -0.25, 546, 3, -0.25, 498, 3, -0.25
*EQUATION
3
1715, 1, 1.0, 497, 1, -0.5, 545, 1, -0.5
*EQUATION
3
1715, 2, 1.0, 497, 2, -0.5, 545, 2, -0.5
*EQUATION
3
1715, 3, 1.0, 497, 3, -0.5, 545, 3, -0.5
*EQUATION
3
1717, 1, 1.0, 498, 1, -0.5, 546, 1, -0.5
*EQUATION
3
1717, 2, 1.0, 498, 2, -0.5, 546, 2, -0.5
*EQUATION
3
1717, 3, 1.0, 498, 3, -0.5, 546, 3, -0.5
*EQUATION
3
1718, 1, 1.0, 538, 1, -0.5, 545, 1, -0.5
*EQUATION
3
1718, 2, 1.0, 538, 2, -0.5, 545, 2, -0.5
*EQUATION
3
1718, 3, 1.0, 538, 3, -0.5, 545, 3, -0.5
*EQUATION
3
1720, 1, 1.0, 540, 1, -0.5, 546, 1, -0.5
*EQUATION
3
1720, 2, 1.0, 540, 2, -0.5, 546, 2, -0.5
*EQUATION
3
1720, 3, 1.0, 540, 3, -0.5, 546, 3, -0.5
*EQUATION
3
1723, 1, 1.0, 533, 1, -0.5, 581, 1, -0.5
*EQUATION
3
1723, 2, 1.0, 533, 2, -0.5, 581, 2, -0.5
*EQUATION
3
1723, 3, 1.0, 533, 3, -0.5, 581, 3, -0.5
*EQUATION
5
1725, 1, 1.0, 533, 1, -0.25, 581, 1, -0.25, 582, 1, -0.25, 534, 1, -0.25
*EQUATION
5
1725, 2, 1.0, 533, 2, -0.25, 581, 2, -0.25, 582, 2, -0.25, 534, 2, -0.25
*EQUATION
5
1725, 3, 1.0, 533, 3, -0.25, 581, 3, -0.25, 582, 3, -0.25, 534, 3, -0.25
*EQUATION
3
1727, 1, 1.0, 534, 1, -0.5, 582, 1, -0.5
*EQUATION
3
1727, 2, 1.0, 534, 2, -0.5, 582, 2, -0.5
*EQUATION
3
1727, 3, 1.0, 534, 3, -0.5, 582, 3, -0.5
*EQUATION
3
1730, 1, 1.0, 581, 1, -0.5, 582, 1, -0.5
*EQUATION
3
1730, 2, 1.0, 581, 2, -0.5, 582, 2, -0.5
*EQUATION
3
1730, 3, 1.0, 581, 3, -0.5, 582, 3, -0.5
*EQUATION
3
1732, 1, 1.0, 537, 1, -0.5, 585, 1, -0.5
*EQUATION
3
1732, 2, 1.0, 537, 2, -0.5, 585, 2, -0.5
*EQUATION
3
1732, 3, 1.0, 537, 3, -0.5, 585, 3, -0.5
*EQUATION
3
1734, 1, 1.0, 539, 1, -0.5, 587, 1, -0.5
*EQUATION
3
1734, 2, 1.0, 539, 2, -0.5, 587, 2, -0.5
*EQUATION
3
1734, 3, 1.0, 539, 3, -0.5, 587, 3, -0.5
*EQUATION
5
1735, 1, 1.0, 537, 1, -0.25, 585, 1, -0.25, 586, 1, -0.25, 538, 1, -0.25
*EQUATION
5
1735, 2, 1.0, 537, 2, -0.25, 585, 2, -0.25, 586, 2, -0.25, 538, 2, -0.25
*EQUATION
5
1735, 3, 1.0, 537, 3, -0.25, 585, 3, -0.25, 586, 3, -0.25, 538, 3, -0.25
*EQUATION
5
1737, 1, 1.0, 539, 1, -0.25, 587, 1, -0.25, 588, 1, -0.25, 540, 1, -0.25
*EQUATION
5
1737, 2, 1.0, 539, 2, -0.25, 587, 2, -0.25, 588, 2, -0.25, 540, 2, -0.25
*EQUATION
5
1737, 3, 1.0, 539, 3, -0.25, 587, 3, -0.25, 588, 3, -0.25, 540, 3, -0.25
*EQUATION
3
1738, 1, 1.0, 538, 1, -0.5, 586, 1, -0.5
*EQUATION
3
1738, 2, 1.0, 538, 2, -0.5, 586, 2, -0.5
*EQUATION
3
1738, 3, 1.0, 538, 3, -0.5, 586, 3, -0.5
*EQUATION
3
1740, 1, 1.0, 540, 1, -0.5, 588, 1, -0.5
*EQUATION
3
1740, 2, 1.0, 540, 2, -0.5, 588, 2, -0.5
*EQUATION
3
1740, 3, 1.0, 540, 3, -0.5, 588, 3, -0.5
*EQUATION
3
1742, 1, 1.0, 585, 1, -0.5, 586, 1, -0.5
*EQUATION
3
1742, 2, 1.0, 585, 2, -0.5, 586, 2, -0.5
*EQUATION
3
1742, 3, 1.0, 585, 3, -0.5, 586, 3, -0.5
*EQUATION
3
1744, 1, 1.0, 587, 1, -0.5, 588, 1, -0.5
*EQUATION
3
1744, 2, 1.0, 587, 2, -0.5, 588, 2, -0.5
*EQUATION
3
1744, 3, 1.0, 587, 3, -0.5, 588, 3, -0.5
*EQUATION
5
1747, 1, 1.0, 534, 1, -0.25, 582, 1, -0.25, 591, 1, -0.25, 543, 1, -0.25
*EQUATION
5
1747, 2, 1.0, 534, 2, -0.25, 582, 2, -0.25, 591, 2, -0.25, 543, 2, -0.25
*EQUATION
5
1747, 3, 1.0, 534, 3, -0.25, 582, 3, -0.25, 591, 3, -0.25, 543, 3, -0.25
*EQUATION
3
1749, 1, 1.0, 543, 1, -0.5, 591, 1, -0.5
*EQUATION
3
1749, 2, 1.0, 543, 2, -0.5, 591, 2, -0.5
*EQUATION
3
1749, 3, 1.0, 543, 3, -0.5, 591, 3, -0.5
*EQUATION
3
1751, 1, 1.0, 582, 1, -0.5, 591, 1, -0.5
*EQUATION
3
1751, 2, 1.0, 582, 2, -0.5, 591, 2, -0.5
*EQUATION
3
1751, 3, 1.0, 582, 3, -0.5, 591, 3, -0.5
*EQUATION
5
1753, 1, 1.0, 538, 1, -0.25, 586, 1, -0.25, 593, 1, -0.25, 545, 1, -0.25
*EQUATION
5
1753, 2, 1.0, 538, 2, -0.25, 586, 2, -0.25, 593, 2, -0.25, 545, 2, -0.25
*EQUATION
5
1753, 3, 1.0, 538, 3, -0.25, 586, 3, -0.25, 593, 3, -0.25, 545, 3, -0.25
*EQUATION
5
1755, 1, 1.0, 540, 1, -0.25, 588, 1, -0.25, 594, 1, -0.25, 546, 1, -0.25
*EQUATION
5
1755, 2, 1.0, 540, 2, -0.25, 588, 2, -0.25, 594, 2, -0.25, 546, 2, -0.25
*EQUATION
5
1755, 3, 1.0, 540, 3, -0.25, 588, 3, -0.25, 594, 3, -0.25, 546, 3, -0.25
*EQUATION
3
1756, 1, 1.0, 545, 1, -0.5, 593, 1, -0.5
*EQUATION
3
1756, 2, 1.0, 545, 2, -0.5, 593, 2, -0.5
*EQUATION
3
1756, 3, 1.0, 545, 3, -0.5, 593, 3, -0.5
*EQUATION
3
1758, 1, 1.0, 546, 1, -0.5, 594, 1, -0.5
*EQUATION
3
1758, 2, 1.0, 546, 2, -0.5, 594, 2, -0.5
*EQUATION
3
1758, 3, 1.0, 546, 3, -0.5, 594, 3, -0.5
*EQUATION
3
1759, 1, 1.0, 586, 1, -0.5, 593, 1, -0.5
*EQUATION
3
1759, 2, 1.0, 586, 2, -0.5, 593, 2, -0.5
*EQUATION
3
1759, 3, 1.0, 586, 3, -0.5, 593, 3, -0.5
*EQUATION
3
1761, 1, 1.0, 588, 1, -0.5, 594, 1, -0.5
*EQUATION
3
1761, 2, 1.0, 588, 2, -0.5, 594, 2, -0.5
*EQUATION
3
1761, 3, 1.0, 588, 3, -0.5, 594, 3, -0.5
*EQUATION
3
1773, 1, 1.0, 581, 1, -0.5, 583, 1, -0.5
*EQUATION
3
1773, 2, 1.0, 581, 2, -0.5, 583, 2, -0.5
*EQUATION
3
1773, 3, 1.0, 581, 3, -0.5, 583, 3, -0.5
*EQUATION
5
1774, 1, 1.0, 581, 1, -0.25, 582, 1, -0.25, 584, 1, -0.25, 583, 1, -0.25
*EQUATION
5
1774, 2, 1.0, 581, 2, -0.25, 582, 2, -0.25, 584, 2, -0.25, 583, 2, -0.25
*EQUATION
5
1774, 3, 1.0, 581, 3, -0.25, 582, 3, -0.25, 584, 3, -0.25, 583, 3, -0.25
*EQUATION
3
1775, 1, 1.0, 583, 1, -0.5, 584, 1, -0.5
*EQUATION
3
1775, 2, 1.0, 583, 2, -0.5, 584, 2, -0.5
*EQUATION
3
1775, 3, 1.0, 583, 3, -0.5, 584, 3, -0.5
*EQUATION
3
1776, 1, 1.0, 582, 1, -0.5, 584, 1, -0.5
*EQUATION
3
1776, 2, 1.0, 582, 2, -0.5, 584, 2, -0.5
*EQUATION
3
1776, 3, 1.0, 582, 3, -0.5, 584, 3, -0.5
*EQUATION
3
1787, 1, 1.0, 583, 1, -0.5, 585, 1, -0.5
*EQUATION
3
1787, 2, 1.0, 583, 2, -0.5, 585, 2, -0.5
*EQUATION
3
1787, 3, 1.0, 583, 3, -0.5, 585, 3, -0.5
*EQUATION
5
1788, 1, 1.0, 583, 1, -0.25, 584, 1, -0.25, 586, 1, -0.25, 585, 1, -0.25
*EQUATION
5
1788, 2, 1.0, 583, 2, -0.25, 584, 2, -0.25, 586, 2, -0.25, 585, 2, -0.25
*EQUATION
5
1788, 3, 1.0, 583, 3, -0.25, 584, 3, -0.25, 586, 3, -0.25, 585, 3, -0.25
*EQUATION
3
1789, 1, 1.0, 584, 1, -0.5, 586, 1, -0.5
*EQUATION
3
1789, 2, 1.0, 584, 2, -0.5, 586, 2, -0.5
*EQUATION
3
1789, 3, 1.0, 584, 3, -0.5, 586, 3, -0.5
*EQUATION
3
1800, 1, 1.0, 587, 1, -0.5, 635, 1, -0.5
*EQUATION
3
1800, 2, 1.0, 587, 2, -0.5, 635, 2, -0.5
*EQUATION
3
1800, 3, 1.0, 587, 3, -0.5, 635, 3, -0.5
*EQUATION
5
1802, 1, 1.0, 587, 1, -0.25, 635, 1, -0.25, 636, 1, -0.25, 588, 1, -0.25
*EQUATION
5
1802, 2, 1.0, 587, 2, -0.25, 635, 2, -0.25, 636, 2, -0.25, 588, 2, -0.25
*EQUATION
5
1802, 3, 1.0, 587, 3, -0.25, 635, 3, -0.25, 636, 3, -0.25, 588, 3, -0.25
*EQUATION
3
1804, 1, 1.0, 588, 1, -0.5, 636, 1, -0.5
*EQUATION
3
1804, 2, 1.0, 588, 2, -0.5, 636, 2, -0.5
*EQUATION
3
1804, 3, 1.0, 588, 3, -0.5, 636, 3, -0.5
*EQUATION
5
1812, 1, 1.0, 582, 1, -0.25, 591, 1, -0.25, 592, 1, -0.25, 584, 1, -0.25
*EQUATION
5
1812, 2, 1.0, 582, 2, -0.25, 591, 2, -0.25, 592, 2, -0.25, 584, 2, -0.25
*EQUATION
5
1812, 3, 1.0, 582, 3, -0.25, 591, 3, -0.25, 592, 3, -0.25, 584, 3, -0.25
*EQUATION
3
1813, 1, 1.0, 584, 1, -0.5, 592, 1, -0.5
*EQUATION
3
1813, 2, 1.0, 584, 2, -0.5, 592, 2, -0.5
*EQUATION
3
1813, 3, 1.0, 584, 3, -0.5, 592, 3, -0.5
*EQUATION
3
1814, 1, 1.0, 591, 1, -0.5, 592, 1, -0.5
*EQUATION
3
1814, 2, 1.0, 591, 2, -0.5, 592, 2, -0.5
*EQUATION
3
1814, 3, 1.0, 591, 3, -0.5, 592, 3, -0.5
*EQUATION
5
1822, 1, 1.0, 584, 1, -0.25, 592, 1, -0.25, 593, 1, -0.25, 586, 1, -0.25
*EQUATION
5
1822, 2, 1.0, 584, 2, -0.25, 592, 2, -0.25, 593, 2, -0.25, 586, 2, -0.25
*EQUATION
5
1822, 3, 1.0, 584, 3, -0.25, 592, 3, -0.25, 593, 3, -0.25, 586, 3, -0.25
*EQUATION
3
1823, 1, 1.0, 592, 1, -0.5, 593, 1, -0.5
*EQUATION
3
1823, 2, 1.0, 592, 2, -0.5, 593, 2, -0.5
*EQUATION
3
1823, 3, 1.0, 592, 3, -0.5, 593, 3, -0.5
*EQUATION
5
1831, 1, 1.0, 588, 1, -0.25, 636, 1, -0.25, 642, 1, -0.25, 594, 1, -0.25
*EQUATION
5
1831, 2, 1.0, 588, 2, -0.25, 636, 2, -0.25, 642, 2, -0.25, 594, 2, -0.25
*EQUATION
5
1831, 3, 1.0, 588, 3, -0.25, 636, 3, -0.25, 642, 3, -0.25, 594, 3, -0.25
*EQUATION
3
1833, 1, 1.0, 594, 1, -0.5, 642, 1, -0.5
*EQUATION
3
1833, 2, 1.0, 594, 2, -0.5, 642, 2, -0.5
*EQUATION
3
1833, 3, 1.0, 594, 3, -0.5, 642, 3, -0.5
*EQUATION
3
1922, 1, 1.0, 691, 1, -0.5, 693, 1, -0.5
*EQUATION
3
1922, 2, 1.0, 691, 2, -0.5, 693, 2, -0.5
*EQUATION
3
1922, 3, 1.0, 691, 3, -0.5, 693, 3, -0.5
*EQUATION
3
1923, 1, 1.0, 691, 1, -0.5, 692, 1, -0.5
*EQUATION
3
1923, 2, 1.0, 691, 2, -0.5, 692, 2, -0.5
*EQUATION
3
1923, 3, 1.0, 691, 3, -0.5, 692, 3, -0.5
*EQUATION
5
1924, 1, 1.0, 691, 1, -0.25, 692, 1, -0.25, 694, 1, -0.25, 693, 1, -0.25
*EQUATION
5
1924, 2, 1.0, 691, 2, -0.25, 692, 2, -0.25, 694, 2, -0.25, 693, 2, -0.25
*EQUATION
5
1924, 3, 1.0, 691, 3, -0.25, 692, 3, -0.25, 694, 3, -0.25, 693, 3, -0.25
*EQUATION
3
1925, 1, 1.0, 693, 1, -0.5, 694, 1, -0.5
*EQUATION
3
1925, 2, 1.0, 693, 2, -0.5, 694, 2, -0.5
*EQUATION
3
1925, 3, 1.0, 693, 3, -0.5, 694, 3, -0.5
*EQUATION
3
1926, 1, 1.0, 692, 1, -0.5, 694, 1, -0.5
*EQUATION
3
1926, 2, 1.0, 692, 2, -0.5, 694, 2, -0.5
*EQUATION
3
1926, 3, 1.0, 692, 3, -0.5, 694, 3, -0.5
*EQUATION
3
1933, 1, 1.0, 692, 1, -0.5, 740, 1, -0.5
*EQUATION
3
1933, 2, 1.0, 692, 2, -0.5, 740, 2, -0.5
*EQUATION
3
1933, 3, 1.0, 692, 3, -0.5, 740, 3, -0.5
*EQUATION
5
1934, 1, 1.0, 692, 1, -0.25, 740, 1, -0.25, 742, 1, -0.25, 694, 1, -0.25
*EQUATION
5
1934, 2, 1.0, 692, 2, -0.25, 740, 2, -0.25, 742, 2, -0.25, 694, 2, -0.25
*EQUATION
5
1934, 3, 1.0, 692, 3, -0.25, 740, 3, -0.25, 742, 3, -0.25, 694, 3, -0.25
*EQUATION
3
1935, 1, 1.0, 694, 1, -0.5, 742, 1, -0.5
*EQUATION
3
1935, 2, 1.0, 694, 2, -0.5, 742, 2, -0.5
*EQUATION
3
1935, 3, 1.0, 694, 3, -0.5, 742, 3, -0.5
*EQUATION
3
1940, 1, 1.0, 740, 1, -0.5, 742, 1, -0.5
*EQUATION
3
1940, 2, 1.0, 740, 2, -0.5, 742, 2, -0.5
*EQUATION
3
1940, 3, 1.0, 740, 3, -0.5, 742, 3, -0.5
*EQUATION
3
1941, 1, 1.0, 693, 1, -0.5, 695, 1, -0.5
*EQUATION
3
1941, 2, 1.0, 693, 2, -0.5, 695, 2, -0.5
*EQUATION
3
1941, 3, 1.0, 693, 3, -0.5, 695, 3, -0.5
*EQUATION
5
1942, 1, 1.0, 693, 1, -0.25, 694, 1, -0.25, 696, 1, -0.25, 695, 1, -0.25
*EQUATION
5
1942, 2, 1.0, 693, 2, -0.25, 694, 2, -0.25, 696, 2, -0.25, 695, 2, -0.25
*EQUATION
5
1942, 3, 1.0, 693, 3, -0.25, 694, 3, -0.25, 696, 3, -0.25, 695, 3, -0.25
*EQUATION
3
1943, 1, 1.0, 695, 1, -0.5, 696, 1, -0.5
*EQUATION
3
1943, 2, 1.0, 695, 2, -0.5, 696, 2, -0.5
*EQUATION
3
1943, 3, 1.0, 695, 3, -0.5, 696, 3, -0.5
*EQUATION
3
1944, 1, 1.0, 694, 1, -0.5, 696, 1, -0.5
*EQUATION
3
1944, 2, 1.0, 694, 2, -0.5, 696, 2, -0.5
*EQUATION
3
1944, 3, 1.0, 694, 3, -0.5, 696, 3, -0.5
*EQUATION
5
1949, 1, 1.0, 694, 1, -0.25, 742, 1, -0.25, 744, 1, -0.25, 696, 1, -0.25
*EQUATION
5
1949, 2, 1.0, 694, 2, -0.25, 742, 2, -0.25, 744, 2, -0.25, 696, 2, -0.25
*EQUATION
5
1949, 3, 1.0, 694, 3, -0.25, 742, 3, -0.25, 744, 3, -0.25, 696, 3, -0.25
*EQUATION
3
1950, 1, 1.0, 696, 1, -0.5, 744, 1, -0.5
*EQUATION
3
1950, 2, 1.0, 696, 2, -0.5, 744, 2, -0.5
*EQUATION
3
1950, 3, 1.0, 696, 3, -0.5, 744, 3, -0.5
*EQUATION
3
1954, 1, 1.0, 742, 1, -0.5, 744, 1, -0.5
*EQUATION
3
1954, 2, 1.0, 742, 2, -0.5, 744, 2, -0.5
*EQUATION
3
1954, 3, 1.0, 742, 3, -0.5, 744, 3, -0.5
*EQUATION
3
1955, 1, 1.0, 715, 1, -0.5, 716, 1, -0.5
*EQUATION
3
1955, 2, 1.0, 715, 2, -0.5, 716, 2, -0.5
*EQUATION
3
1955, 3, 1.0, 715, 3, -0.5, 716, 3, -0.5
*EQUATION
3
1956, 1, 1.0, 715, 1, -0.5, 718, 1, -0.5
*EQUATION
3
1956, 2, 1.0, 715, 2, -0.5, 718, 2, -0.5
*EQUATION
3
1956, 3, 1.0, 715, 3, -0.5, 718, 3, -0.5
*EQUATION
5
1957, 1, 1.0, 715, 1, -0.25, 718, 1, -0.25, 719, 1, -0.25, 716, 1, -0.25
*EQUATION
5
1957, 2, 1.0, 715, 2, -0.25, 718, 2, -0.25, 719, 2, -0.25, 716, 2, -0.25
*EQUATION
5
1957, 3, 1.0, 715, 3, -0.25, 718, 3, -0.25, 719, 3, -0.25, 716, 3, -0.25
*EQUATION
3
1958, 1, 1.0, 716, 1, -0.5, 719, 1, -0.5
*EQUATION
3
1958, 2, 1.0, 716, 2, -0.5, 719, 2, -0.5
*EQUATION
3
1958, 3, 1.0, 716, 3, -0.5, 719, 3, -0.5
*EQUATION
3
1959, 1, 1.0, 718, 1, -0.5, 719, 1, -0.5
*EQUATION
3
1959, 2, 1.0, 718, 2, -0.5, 719, 2, -0.5
*EQUATION
3
1959, 3, 1.0, 718, 3, -0.5, 719, 3, -0.5
*EQUATION
3
1960, 1, 1.0, 715, 1, -0.5, 763, 1, -0.5
*EQUATION
3
1960, 2, 1.0, 715, 2, -0.5, 763, 2, -0.5
*EQUATION
3
1960, 3, 1.0, 715, 3, -0.5, 763, 3, -0.5
*EQUATION
5
1961, 1, 1.0, 715, 1, -0.25, 763, 1, -0.25, 764, 1, -0.25, 716, 1, -0.25
*EQUATION
5
1961, 2, 1.0, 715, 2, -0.25, 763, 2, -0.25, 764, 2, -0.25, 716, 2, -0.25
*EQUATION
5
1961, 3, 1.0, 715, 3, -0.25, 763, 3, -0.25, 764, 3, -0.25, 716, 3, -0.25
*EQUATION
3
1962, 1, 1.0, 716, 1, -0.5, 764, 1, -0.5
*EQUATION
3
1962, 2, 1.0, 716, 2, -0.5, 764, 2, -0.5
*EQUATION
3
1962, 3, 1.0, 716, 3, -0.5, 764, 3, -0.5
*EQUATION
3
1969, 1, 1.0, 763, 1, -0.5, 764, 1, -0.5
*EQUATION
3
1969, 2, 1.0, 763, 2, -0.5, 764, 2, -0.5
*EQUATION
3
1969, 3, 1.0, 763, 3, -0.5, 764, 3, -0.5
*EQUATION
3
1974, 1, 1.0, 716, 1, -0.5, 717, 1, -0.5
*EQUATION
3
1974, 2, 1.0, 716, 2, -0.5, 717, 2, -0.5
*EQUATION
3
1974, 3, 1.0, 716, 3, -0.5, 717, 3, -0.5
*EQUATION
5
1975, 1, 1.0, 716, 1, -0.25, 719, 1, -0.25, 720, 1, -0.25, 717, 1, -0.25
*EQUATION
5
1975, 2, 1.0, 716, 2, -0.25, 719, 2, -0.25, 720, 2, -0.25, 717, 2, -0.25
*EQUATION
5
1975, 3, 1.0, 716, 3, -0.25, 719, 3, -0.25, 720, 3, -0.25, 717, 3, -0.25
*EQUATION
3
1976, 1, 1.0, 717, 1, -0.5, 720, 1, -0.5
*EQUATION
3
1976, 2, 1.0, 717, 2, -0.5, 720, 2, -0.5
*EQUATION
3
1976, 3, 1.0, 717, 3, -0.5, 720, 3, -0.5
*EQUATION
3
1977, 1, 1.0, 719, 1, -0.5, 720, 1, -0.5
*EQUATION
3
1977, 2, 1.0, 719, 2, -0.5, 720, 2, -0.5
*EQUATION
3
1977, 3, 1.0, 719, 3, -0.5, 720, 3, -0.5
*EQUATION
5
1978, 1, 1.0, 716, 1, -0.25, 764, 1, -0.25, 765, 1, -0.25, 717, 1, -0.25
*EQUATION
5
1978, 2, 1.0, 716, 2, -0.25, 764, 2, -0.25, 765, 2, -0.25, 717, 2, -0.25
*EQUATION
5
1978, 3, 1.0, 716, 3, -0.25, 764, 3, -0.25, 765, 3, -0.25, 717, 3, -0.25
*EQUATION
3
1979, 1, 1.0, 717, 1, -0.5, 765, 1, -0.5
*EQUATION
3
1979, 2, 1.0, 717, 2, -0.5, 765, 2, -0.5
*EQUATION
3
1979, 3, 1.0, 717, 3, -0.5, 765, 3, -0.5
*EQUATION
3
1984, 1, 1.0, 764, 1, -0.5, 765, 1, -0.5
*EQUATION
3
1984, 2, 1.0, 764, 2, -0.5, 765, 2, -0.5
*EQUATION
3
1984, 3, 1.0, 764, 3, -0.5, 765, 3, -0.5
*EQUATION
3
2024, 1, 1.0, 740, 1, -0.5, 788, 1, -0.5
*EQUATION
3
2024, 2, 1.0, 740, 2, -0.5, 788, 2, -0.5
*EQUATION
3
2024, 3, 1.0, 740, 3, -0.5, 788, 3, -0.5
*EQUATION
5
2025, 1, 1.0, 740, 1, -0.25, 788, 1, -0.25, 790, 1, -0.25, 742, 1, -0.25
*EQUATION
5
2025, 2, 1.0, 740, 2, -0.25, 788, 2, -0.25, 790, 2, -0.25, 742, 2, -0.25
*EQUATION
5
2025, 3, 1.0, 740, 3, -0.25, 788, 3, -0.25, 790, 3, -0.25, 742, 3, -0.25
*EQUATION
3
2026, 1, 1.0, 742, 1, -0.5, 790, 1, -0.5
*EQUATION
3
2026, 2, 1.0, 742, 2, -0.5, 790, 2, -0.5
*EQUATION
3
2026, 3, 1.0, 742, 3, -0.5, 790, 3, -0.5
*EQUATION
3
2031, 1, 1.0, 788, 1, -0.5, 790, 1, -0.5
*EQUATION
3
2031, 2, 1.0, 788, 2, -0.5, 790, 2, -0.5
*EQUATION
3
2031, 3, 1.0, 788, 3, -0.5, 790, 3, -0.5
*EQUATION
5
2036, 1, 1.0, 742, 1, -0.25, 790, 1, -0.25, 792, 1, -0.25, 744, 1, -0.25
*EQUATION
5
2036, 2, 1.0, 742, 2, -0.25, 790, 2, -0.25, 792, 2, -0.25, 744, 2, -0.25
*EQUATION
5
2036, 3, 1.0, 742, 3, -0.25, 790, 3, -0.25, 792, 3, -0.25, 744, 3, -0.25
*EQUATION
3
2037, 1, 1.0, 744, 1, -0.5, 792, 1, -0.5
*EQUATION
3
2037, 2, 1.0, 744, 2, -0.5, 792, 2, -0.5
*EQUATION
3
2037, 3, 1.0, 744, 3, -0.5, 792, 3, -0.5
*EQUATION
3
2041, 1, 1.0, 790, 1, -0.5, 792, 1, -0.5
*EQUATION
3
2041, 2, 1.0, 790, 2, -0.5, 792, 2, -0.5
*EQUATION
3
2041, 3, 1.0, 790, 3, -0.5, 792, 3, -0.5
*EQUATION
3
2042, 1, 1.0, 763, 1, -0.5, 811, 1, -0.5
*EQUATION
3
2042, 2, 1.0, 763, 2, -0.5, 811, 2, -0.5
*EQUATION
3
2042, 3, 1.0, 763, 3, -0.5, 811, 3, -0.5
*EQUATION
5
2043, 1, 1.0, 763, 1, -0.25, 811, 1, -0.25, 812, 1, -0.25, 764, 1, -0.25
*EQUATION
5
2043, 2, 1.0, 763, 2, -0.25, 811, 2, -0.25, 812, 2, -0.25, 764, 2, -0.25
*EQUATION
5
2043, 3, 1.0, 763, 3, -0.25, 811, 3, -0.25, 812, 3, -0.25, 764, 3, -0.25
*EQUATION
3
2044, 1, 1.0, 764, 1, -0.5, 812, 1, -0.5
*EQUATION
3
2044, 2, 1.0, 764, 2, -0.5, 812, 2, -0.5
*EQUATION
3
2044, 3, 1.0, 764, 3, -0.5, 812, 3, -0.5
*EQUATION
3
2051, 1, 1.0, 811, 1, -0.5, 812, 1, -0.5
*EQUATION
3
2051, 2, 1.0, 811, 2, -0.5, 812, 2, -0.5
*EQUATION
3
2051, 3, 1.0, 811, 3, -0.5, 812, 3, -0.5
*EQUATION
5
2056, 1, 1.0, 764, 1, -0.25, 812, 1, -0.25, 813, 1, -0.25, 765, 1, -0.25
*EQUATION
5
2056, 2, 1.0, 764, 2, -0.25, 812, 2, -0.25, 813, 2, -0.25, 765, 2, -0.25
*EQUATION
5
2056, 3, 1.0, 764, 3, -0.25, 812, 3, -0.25, 813, 3, -0.25, 765, 3, -0.25
*EQUATION
3
2057, 1, 1.0, 765, 1, -0.5, 813, 1, -0.5
*EQUATION
3
2057, 2, 1.0, 765, 2, -0.5, 813, 2, -0.5
*EQUATION
3
2057, 3, 1.0, 765, 3, -0.5, 813, 3, -0.5
*EQUATION
3
2062, 1, 1.0, 812, 1, -0.5, 813, 1, -0.5
*EQUATION
3
2062, 2, 1.0, 812, 2, -0.5, 813, 2, -0.5
*EQUATION
3
2062, 3, 1.0, 812, 3, -0.5, 813, 3, -0.5
*EQUATION
3
2077, 1, 1.0, 788, 1, -0.5, 836, 1, -0.5
*EQUATION
3
2077, 2, 1.0, 788, 2, -0.5, 836, 2, -0.5
*EQUATION
3
2077, 3, 1.0, 788, 3, -0.5, 836, 3, -0.5
*EQUATION
5
2078, 1, 1.0, 788, 1, -0.25, 836, 1, -0.25, 838, 1, -0.25, 790, 1, -0.25
*EQUATION
5
2078, 2, 1.0, 788, 2, -0.25, 836, 2, -0.25, 838, 2, -0.25, 790, 2, -0.25
*EQUATION
5
2078, 3, 1.0, 788, 3, -0.25, 836, 3, -0.25, 838, 3, -0.25, 790, 3, -0.25
*EQUATION
3
2079, 1, 1.0, 790, 1, -0.5, 838, 1, -0.5
*EQUATION
3
2079, 2, 1.0, 790, 2, -0.5, 838, 2, -0.5
*EQUATION
3
2079, 3, 1.0, 790, 3, -0.5, 838, 3, -0.5
*EQUATION
5
2084, 1, 1.0, 790, 1, -0.25, 838, 1, -0.25, 840, 1, -0.25, 792, 1, -0.25
*EQUATION
5
2084, 2, 1.0, 790, 2, -0.25, 838, 2, -0.25, 840, 2, -0.25, 792, 2, -0.25
*EQUATION
5
2084, 3, 1.0, 790, 3, -0.25, 838, 3, -0.25, 840, 3, -0.25, 792, 3, -0.25
*EQUATION
3
2085, 1, 1.0, 792, 1, -0.5, 840, 1, -0.5
*EQUATION
3
2085, 2, 1.0, 792, 2, -0.5, 840, 2, -0.5
*EQUATION
3
2085, 3, 1.0, 792, 3, -0.5, 840, 3, -0.5
*EQUATION
3
2086, 1, 1.0, 796, 1, -0.5, 797, 1, -0.5
*EQUATION
3
2086, 2, 1.0, 796, 2, -0.5, 797, 2, -0.5
*EQUATION
3
2086, 3, 1.0, 796, 3, -0.5, 797, 3, -0.5
*EQUATION
3
2087, 1, 1.0, 779, 1, -0.5, 796, 1, -0.5
*EQUATION
3
2087, 2, 1.0, 779, 2, -0.5, 796, 2, -0.5
*EQUATION
3
2087, 3, 1.0, 779, 3, -0.5, 796, 3, -0.5
*EQUATION
5
2088, 1, 1.0, 796, 1, -0.25, 779, 1, -0.25, 799, 1, -0.25, 797, 1, -0.25
*EQUATION
5
2088, 2, 1.0, 796, 2, -0.25, 779, 2, -0.25, 799, 2, -0.25, 797, 2, -0.25
*EQUATION
5
2088, 3, 1.0, 796, 3, -0.25, 779, 3, -0.25, 799, 3, -0.25, 797, 3, -0.25
*EQUATION
3
2089, 1, 1.0, 797, 1, -0.5, 799, 1, -0.5
*EQUATION
3
2089, 2, 1.0, 797, 2, -0.5, 799, 2, -0.5
*EQUATION
3
2089, 3, 1.0, 797, 3, -0.5, 799, 3, -0.5
*EQUATION
3
2090, 1, 1.0, 779, 1, -0.5, 799, 1, -0.5
*EQUATION
3
2090, 2, 1.0, 779, 2, -0.5, 799, 2, -0.5
*EQUATION
3
2090, 3, 1.0, 779, 3, -0.5, 799, 3, -0.5
*EQUATION
3
2091, 1, 1.0, 796, 1, -0.5, 844, 1, -0.5
*EQUATION
3
2091, 2, 1.0, 796, 2, -0.5, 844, 2, -0.5
*EQUATION
3
2091, 3, 1.0, 796, 3, -0.5, 844, 3, -0.5
*EQUATION
5
2092, 1, 1.0, 796, 1, -0.25, 844, 1, -0.25, 845, 1, -0.25, 797, 1, -0.25
*EQUATION
5
2092, 2, 1.0, 796, 2, -0.25, 844, 2, -0.25, 845, 2, -0.25, 797, 2, -0.25
*EQUATION
5
2092, 3, 1.0, 796, 3, -0.25, 844, 3, -0.25, 845, 3, -0.25, 797, 3, -0.25
*EQUATION
3
2093, 1, 1.0, 797, 1, -0.5, 845, 1, -0.5
*EQUATION
3
2093, 2, 1.0, 797, 2, -0.5, 845, 2, -0.5
*EQUATION
3
2093, 3, 1.0, 797, 3, -0.5, 845, 3, -0.5
*EQUATION
5
2097, 1, 1.0, 779, 1, -0.25, 827, 1, -0.25, 847, 1, -0.25, 799, 1, -0.25
*EQUATION
5
2097, 2, 1.0, 779, 2, -0.25, 827, 2, -0.25, 847, 2, -0.25, 799, 2, -0.25
*EQUATION
5
2097, 3, 1.0, 779, 3, -0.25, 827, 3, -0.25, 847, 3, -0.25, 799, 3, -0.25
*EQUATION
3
2098, 1, 1.0, 799, 1, -0.5, 847, 1, -0.5
*EQUATION
3
2098, 2, 1.0, 799, 2, -0.5, 847, 2, -0.5
*EQUATION
3
2098, 3, 1.0, 799, 3, -0.5, 847, 3, -0.5
*EQUATION
3
2099, 1, 1.0, 844, 1, -0.5, 845, 1, -0.5
*EQUATION
3
2099, 2, 1.0, 844, 2, -0.5, 845, 2, -0.5
*EQUATION
3
2099, 3, 1.0, 844, 3, -0.5, 845, 3, -0.5
*EQUATION
3
2103, 1, 1.0, 827, 1, -0.5, 847, 1, -0.5
*EQUATION
3
2103, 2, 1.0, 827, 2, -0.5, 847, 2, -0.5
*EQUATION
3
2103, 3, 1.0, 827, 3, -0.5, 847, 3, -0.5
*EQUATION
3
2104, 1, 1.0, 797, 1, -0.5, 798, 1, -0.5
*EQUATION
3
2104, 2, 1.0, 797, 2, -0.5, 798, 2, -0.5
*EQUATION
3
2104, 3, 1.0, 797, 3, -0.5, 798, 3, -0.5
*EQUATION
5
2105, 1, 1.0, 797, 1, -0.25, 799, 1, -0.25, 800, 1, -0.25, 798, 1, -0.25
*EQUATION
5
2105, 2, 1.0, 797, 2, -0.25, 799, 2, -0.25, 800, 2, -0.25, 798, 2, -0.25
*EQUATION
5
2105, 3, 1.0, 797, 3, -0.25, 799, 3, -0.25, 800, 3, -0.25, 798, 3, -0.25
*EQUATION
3
2106, 1, 1.0, 798, 1, -0.5, 800, 1, -0.5
*EQUATION
3
2106, 2, 1.0, 798, 2, -0.5, 800, 2, -0.5
*EQUATION
3
2106, 3, 1.0, 798, 3, -0.5, 800, 3, -0.5
*EQUATION
3
2107, 1, 1.0, 799, 1, -0.5, 800, 1, -0.5
*EQUATION
3
2107, 2, 1.0, 799, 2, -0.5, 800, 2, -0.5
*EQUATION
3
2107, 3, 1.0, 799, 3, -0.5, 800, 3, -0.5
*EQUATION
5
2108, 1, 1.0, 797, 1, -0.25, 845, 1, -0.25, 846, 1, -0.25, 798, 1, -0.25
*EQUATION
5
2108, 2, 1.0, 797, 2, -0.25, 845, 2, -0.25, 846, 2, -0.25, 798, 2, -0.25
*EQUATION
5
2108, 3, 1.0, 797, 3, -0.25, 845, 3, -0.25, 846, 3, -0.25, 798, 3, -0.25
*EQUATION
3
2109, 1, 1.0, 798, 1, -0.5, 846, 1, -0.5
*EQUATION
3
2109, 2, 1.0, 798, 2, -0.5, 846, 2, -0.5
*EQUATION
3
2109, 3, 1.0, 798, 3, -0.5, 846, 3, -0.5
*EQUATION
5
2112, 1, 1.0, 799, 1, -0.25, 847, 1, -0.25, 848, 1, -0.25, 800, 1, -0.25
*EQUATION
5
2112, 2, 1.0, 799, 2, -0.25, 847, 2, -0.25, 848, 2, -0.25, 800, 2, -0.25
*EQUATION
5
2112, 3, 1.0, 799, 3, -0.25, 847, 3, -0.25, 848, 3, -0.25, 800, 3, -0.25
*EQUATION
3
2113, 1, 1.0, 800, 1, -0.5, 848, 1, -0.5
*EQUATION
3
2113, 2, 1.0, 800, 2, -0.5, 848, 2, -0.5
*EQUATION
3
2113, 3, 1.0, 800, 3, -0.5, 848, 3, -0.5
*EQUATION
3
2114, 1, 1.0, 845, 1, -0.5, 846, 1, -0.5
*EQUATION
3
2114, 2, 1.0, 845, 2, -0.5, 846, 2, -0.5
*EQUATION
3
2114, 3, 1.0, 845, 3, -0.5, 846, 3, -0.5
*EQUATION
3
2117, 1, 1.0, 847, 1, -0.5, 848, 1, -0.5
*EQUATION
3
2117, 2, 1.0, 847, 2, -0.5, 848, 2, -0.5
*EQUATION
3
2117, 3, 1.0, 847, 3, -0.5, 848, 3, -0.5
*EQUATION
3
2118, 1, 1.0, 786, 1, -0.5, 803, 1, -0.5
*EQUATION
3
2118, 2, 1.0, 786, 2, -0.5, 803, 2, -0.5
*EQUATION
3
2118, 3, 1.0, 786, 3, -0.5, 803, 3, -0.5
*EQUATION
3
2119, 1, 1.0, 786, 1, -0.5, 805, 1, -0.5
*EQUATION
3
2119, 2, 1.0, 786, 2, -0.5, 805, 2, -0.5
*EQUATION
3
2119, 3, 1.0, 786, 3, -0.5, 805, 3, -0.5
*EQUATION
5
2120, 1, 1.0, 786, 1, -0.25, 805, 1, -0.25, 806, 1, -0.25, 803, 1, -0.25
*EQUATION
5
2120, 2, 1.0, 786, 2, -0.25, 805, 2, -0.25, 806, 2, -0.25, 803, 2, -0.25
*EQUATION
5
2120, 3, 1.0, 786, 3, -0.25, 805, 3, -0.25, 806, 3, -0.25, 803, 3, -0.25
*EQUATION
3
2121, 1, 1.0, 803, 1, -0.5, 806, 1, -0.5
*EQUATION
3
2121, 2, 1.0, 803, 2, -0.5, 806, 2, -0.5
*EQUATION
3
2121, 3, 1.0, 803, 3, -0.5, 806, 3, -0.5
*EQUATION
3
2122, 1, 1.0, 805, 1, -0.5, 806, 1, -0.5
*EQUATION
3
2122, 2, 1.0, 805, 2, -0.5, 806, 2, -0.5
*EQUATION
3
2122, 3, 1.0, 805, 3, -0.5, 806, 3, -0.5
*EQUATION
5
2123, 1, 1.0, 786, 1, -0.25, 834, 1, -0.25, 851, 1, -0.25, 803, 1, -0.25
*EQUATION
5
2123, 2, 1.0, 786, 2, -0.25, 834, 2, -0.25, 851, 2, -0.25, 803, 2, -0.25
*EQUATION
5
2123, 3, 1.0, 786, 3, -0.25, 834, 3, -0.25, 851, 3, -0.25, 803, 3, -0.25
*EQUATION
3
2124, 1, 1.0, 803, 1, -0.5, 851, 1, -0.5
*EQUATION
3
2124, 2, 1.0, 803, 2, -0.5, 851, 2, -0.5
*EQUATION
3
2124, 3, 1.0, 803, 3, -0.5, 851, 3, -0.5
*EQUATION
3
2128, 1, 1.0, 805, 1, -0.5, 853, 1, -0.5
*EQUATION
3
2128, 2, 1.0, 805, 2, -0.5, 853, 2, -0.5
*EQUATION
3
2128, 3, 1.0, 805, 3, -0.5, 853, 3, -0.5
*EQUATION
5
2129, 1, 1.0, 805, 1, -0.25, 853, 1, -0.25, 854, 1, -0.25, 806, 1, -0.25
*EQUATION
5
2129, 2, 1.0, 805, 2, -0.25, 853, 2, -0.25, 854, 2, -0.25, 806, 2, -0.25
*EQUATION
5
2129, 3, 1.0, 805, 3, -0.25, 853, 3, -0.25, 854, 3, -0.25, 806, 3, -0.25
*EQUATION
3
2130, 1, 1.0, 806, 1, -0.5, 854, 1, -0.5
*EQUATION
3
2130, 2, 1.0, 806, 2, -0.5, 854, 2, -0.5
*EQUATION
3
2130, 3, 1.0, 806, 3, -0.5, 854, 3, -0.5
*EQUATION
3
2131, 1, 1.0, 834, 1, -0.5, 851, 1, -0.5
*EQUATION
3
2131, 2, 1.0, 834, 2, -0.5, 851, 2, -0.5
*EQUATION
3
2131, 3, 1.0, 834, 3, -0.5, 851, 3, -0.5
*EQUATION
3
2135, 1, 1.0, 853, 1, -0.5, 854, 1, -0.5
*EQUATION
3
2135, 2, 1.0, 853, 2, -0.5, 854, 2, -0.5
*EQUATION
3
2135, 3, 1.0, 853, 3, -0.5, 854, 3, -0.5
*EQUATION
3
2136, 1, 1.0, 803, 1, -0.5, 804, 1, -0.5
*EQUATION
3
2136, 2, 1.0, 803, 2, -0.5, 804, 2, -0.5
*EQUATION
3
2136, 3, 1.0, 803, 3, -0.5, 804, 3, -0.5
*EQUATION
5
2137, 1, 1.0, 803, 1, -0.25, 806, 1, -0.25, 807, 1, -0.25, 804, 1, -0.25
*EQUATION
5
2137, 2, 1.0, 803, 2, -0.25, 806, 2, -0.25, 807, 2, -0.25, 804, 2, -0.25
*EQUATION
5
2137, 3, 1.0, 803, 3, -0.25, 806, 3, -0.25, 807, 3, -0.25, 804, 3, -0.25
*EQUATION
3
2138, 1, 1.0, 804, 1, -0.5, 807, 1, -0.5
*EQUATION
3
2138, 2, 1.0, 804, 2, -0.5, 807, 2, -0.5
*EQUATION
3
2138, 3, 1.0, 804, 3, -0.5, 807, 3, -0.5
*EQUATION
3
2139, 1, 1.0, 806, 1, -0.5, 807, 1, -0.5
*EQUATION
3
2139, 2, 1.0, 806, 2, -0.5, 807, 2, -0.5
*EQUATION
3
2139, 3, 1.0, 806, 3, -0.5, 807, 3, -0.5
*EQUATION
5
2140, 1, 1.0, 803, 1, -0.25, 851, 1, -0.25, 852, 1, -0.25, 804, 1, -0.25
*EQUATION
5
2140, 2, 1.0, 803, 2, -0.25, 851, 2, -0.25, 852, 2, -0.25, 804, 2, -0.25
*EQUATION
5
2140, 3, 1.0, 803, 3, -0.25, 851, 3, -0.25, 852, 3, -0.25, 804, 3, -0.25
*EQUATION
3
2141, 1, 1.0, 804, 1, -0.5, 852, 1, -0.5
*EQUATION
3
2141, 2, 1.0, 804, 2, -0.5, 852, 2, -0.5
*EQUATION
3
2141, 3, 1.0, 804, 3, -0.5, 852, 3, -0.5
*EQUATION
5
2144, 1, 1.0, 806, 1, -0.25, 854, 1, -0.25, 855, 1, -0.25, 807, 1, -0.25
*EQUATION
5
2144, 2, 1.0, 806, 2, -0.25, 854, 2, -0.25, 855, 2, -0.25, 807, 2, -0.25
*EQUATION
5
2144, 3, 1.0, 806, 3, -0.25, 854, 3, -0.25, 855, 3, -0.25, 807, 3, -0.25
*EQUATION
3
2145, 1, 1.0, 807, 1, -0.5, 855, 1, -0.5
*EQUATION
3
2145, 2, 1.0, 807, 2, -0.5, 855, 2, -0.5
*EQUATION
3
2145, 3, 1.0, 807, 3, -0.5, 855, 3, -0.5
*EQUATION
3
2146, 1, 1.0, 851, 1, -0.5, 852, 1, -0.5
*EQUATION
3
2146, 2, 1.0, 851, 2, -0.5, 852, 2, -0.5
*EQUATION
3
2146, 3, 1.0, 851, 3, -0.5, 852, 3, -0.5
*EQUATION
3
2149, 1, 1.0, 854, 1, -0.5, 855, 1, -0.5
*EQUATION
3
2149, 2, 1.0, 854, 2, -0.5, 855, 2, -0.5
*EQUATION
3
2149, 3, 1.0, 854, 3, -0.5, 855, 3, -0.5
*EQUATION
3
2150, 1, 1.0, 811, 1, -0.5, 859, 1, -0.5
*EQUATION
3
2150, 2, 1.0, 811, 2, -0.5, 859, 2, -0.5
*EQUATION
3
2150, 3, 1.0, 811, 3, -0.5, 859, 3, -0.5
*EQUATION
5
2151, 1, 1.0, 811, 1, -0.25, 859, 1, -0.25, 860, 1, -0.25, 812, 1, -0.25
*EQUATION
5
2151, 2, 1.0, 811, 2, -0.25, 859, 2, -0.25, 860, 2, -0.25, 812, 2, -0.25
*EQUATION
5
2151, 3, 1.0, 811, 3, -0.25, 859, 3, -0.25, 860, 3, -0.25, 812, 3, -0.25
*EQUATION
3
2152, 1, 1.0, 812, 1, -0.5, 860, 1, -0.5
*EQUATION
3
2152, 2, 1.0, 812, 2, -0.5, 860, 2, -0.5
*EQUATION
3
2152, 3, 1.0, 812, 3, -0.5, 860, 3, -0.5
*EQUATION
5
2159, 1, 1.0, 812, 1, -0.25, 860, 1, -0.25, 861, 1, -0.25, 813, 1, -0.25
*EQUATION
5
2159, 2, 1.0, 812, 2, -0.25, 860, 2, -0.25, 861, 2, -0.25, 813, 2, -0.25
*EQUATION
5
2159, 3, 1.0, 812, 3, -0.25, 860, 3, -0.25, 861, 3, -0.25, 813, 3, -0.25
*EQUATION
3
2160, 1, 1.0, 813, 1, -0.5, 861, 1, -0.5
*EQUATION
3
2160, 2, 1.0, 813, 2, -0.5, 861, 2, -0.5
*EQUATION
3
2160, 3, 1.0, 813, 3, -0.5, 861, 3, -0.5
*EQUATION
3
2165, 1, 1.0, 836, 1, -0.5, 841, 1, -0.5
*EQUATION
3
2165, 2, 1.0, 836, 2, -0.5, 841, 2, -0.5
*EQUATION
3
2165, 3, 1.0, 836, 3, -0.5, 841, 3, -0.5
*EQUATION
5
2166, 1, 1.0, 836, 1, -0.25, 841, 1, -0.25, 842, 1, -0.25, 838, 1, -0.25
*EQUATION
5
2166, 2, 1.0, 836, 2, -0.25, 841, 2, -0.25, 842, 2, -0.25, 838, 2, -0.25
*EQUATION
5
2166, 3, 1.0, 836, 3, -0.25, 841, 3, -0.25, 842, 3, -0.25, 838, 3, -0.25
*EQUATION
3
2167, 1, 1.0, 838, 1, -0.5, 842, 1, -0.5
*EQUATION
3
2167, 2, 1.0, 838, 2, -0.5, 842, 2, -0.5
*EQUATION
3
2167, 3, 1.0, 838, 3, -0.5, 842, 3, -0.5
*EQUATION
3
2168, 1, 1.0, 841, 1, -0.5, 842, 1, -0.5
*EQUATION
3
2168, 2, 1.0, 841, 2, -0.5, 842, 2, -0.5
*EQUATION
3
2168, 3, 1.0, 841, 3, -0.5, 842, 3, -0.5
*EQUATION
3
2172, 1, 1.0, 841, 1, -0.5, 889, 1, -0.5
*EQUATION
3
2172, 2, 1.0, 841, 2, -0.5, 889, 2, -0.5
*EQUATION
3
2172, 3, 1.0, 841, 3, -0.5, 889, 3, -0.5
*EQUATION
5
2173, 1, 1.0, 841, 1, -0.25, 889, 1, -0.25, 890, 1, -0.25, 842, 1, -0.25
*EQUATION
5
2173, 2, 1.0, 841, 2, -0.25, 889, 2, -0.25, 890, 2, -0.25, 842, 2, -0.25
*EQUATION
5
2173, 3, 1.0, 841, 3, -0.25, 889, 3, -0.25, 890, 3, -0.25, 842, 3, -0.25
*EQUATION
3
2174, 1, 1.0, 842, 1, -0.5, 890, 1, -0.5
*EQUATION
3
2174, 2, 1.0, 842, 2, -0.5, 890, 2, -0.5
*EQUATION
3
2174, 3, 1.0, 842, 3, -0.5, 890, 3, -0.5
*EQUATION
3
2178, 1, 1.0, 889, 1, -0.5, 890, 1, -0.5
*EQUATION
3
2178, 2, 1.0, 889, 2, -0.5, 890, 2, -0.5
*EQUATION
3
2178, 3, 1.0, 889, 3, -0.5, 890, 3, -0.5
*EQUATION
5
2179, 1, 1.0, 838, 1, -0.25, 842, 1, -0.25, 843, 1, -0.25, 840, 1, -0.25
*EQUATION
5
2179, 2, 1.0, 838, 2, -0.25, 842, 2, -0.25, 843, 2, -0.25, 840, 2, -0.25
*EQUATION
5
2179, 3, 1.0, 838, 3, -0.25, 842, 3, -0.25, 843, 3, -0.25, 840, 3, -0.25
*EQUATION
3
2180, 1, 1.0, 840, 1, -0.5, 843, 1, -0.5
*EQUATION
3
2180, 2, 1.0, 840, 2, -0.5, 843, 2, -0.5
*EQUATION
3
2180, 3, 1.0, 840, 3, -0.5, 843, 3, -0.5
*EQUATION
3
2181, 1, 1.0, 842, 1, -0.5, 843, 1, -0.5
*EQUATION
3
2181, 2, 1.0, 842, 2, -0.5, 843, 2, -0.5
*EQUATION
3
2181, 3, 1.0, 842, 3, -0.5, 843, 3, -0.5
*EQUATION
5
2184, 1, 1.0, 842, 1, -0.25, 890, 1, -0.25, 891, 1, -0.25, 843, 1, -0.25
*EQUATION
5
2184, 2, 1.0, 842, 2, -0.25, 890, 2, -0.25, 891, 2, -0.25, 843, 2, -0.25
*EQUATION
5
2184, 3, 1.0, 842, 3, -0.25, 890, 3, -0.25, 891, 3, -0.25, 843, 3, -0.25
*EQUATION
3
2185, 1, 1.0, 843, 1, -0.5, 891, 1, -0.5
*EQUATION
3
2185, 2, 1.0, 843, 2, -0.5, 891, 2, -0.5
*EQUATION
3
2185, 3, 1.0, 843, 3, -0.5, 891, 3, -0.5
*EQUATION
3
2188, 1, 1.0, 890, 1, -0.5, 891, 1, -0.5
*EQUATION
3
2188, 2, 1.0, 890, 2, -0.5, 891, 2, -0.5
*EQUATION
3
2188, 3, 1.0, 890, 3, -0.5, 891, 3, -0.5
*EQUATION
3
2189, 1, 1.0, 844, 1, -0.5, 892, 1, -0.5
*EQUATION
3
2189, 2, 1.0, 844, 2, -0.5, 892, 2, -0.5
*EQUATION
3
2189, 3, 1.0, 844, 3, -0.5, 892, 3, -0.5
*EQUATION
5
2190, 1, 1.0, 844, 1, -0.25, 892, 1, -0.25, 893, 1, -0.25, 845, 1, -0.25
*EQUATION
5
2190, 2, 1.0, 844, 2, -0.25, 892, 2, -0.25, 893, 2, -0.25, 845, 2, -0.25
*EQUATION
5
2190, 3, 1.0, 844, 3, -0.25, 892, 3, -0.25, 893, 3, -0.25, 845, 3, -0.25
*EQUATION
3
2191, 1, 1.0, 845, 1, -0.5, 893, 1, -0.5
*EQUATION
3
2191, 2, 1.0, 845, 2, -0.5, 893, 2, -0.5
*EQUATION
3
2191, 3, 1.0, 845, 3, -0.5, 893, 3, -0.5
*EQUATION
5
2195, 1, 1.0, 827, 1, -0.25, 875, 1, -0.25, 895, 1, -0.25, 847, 1, -0.25
*EQUATION
5
2195, 2, 1.0, 827, 2, -0.25, 875, 2, -0.25, 895, 2, -0.25, 847, 2, -0.25
*EQUATION
5
2195, 3, 1.0, 827, 3, -0.25, 875, 3, -0.25, 895, 3, -0.25, 847, 3, -0.25
*EQUATION
3
2196, 1, 1.0, 847, 1, -0.5, 895, 1, -0.5
*EQUATION
3
2196, 2, 1.0, 847, 2, -0.5, 895, 2, -0.5
*EQUATION
3
2196, 3, 1.0, 847, 3, -0.5, 895, 3, -0.5
*EQUATION
3
2197, 1, 1.0, 892, 1, -0.5, 893, 1, -0.5
*EQUATION
3
2197, 2, 1.0, 892, 2, -0.5, 893, 2, -0.5
*EQUATION
3
2197, 3, 1.0, 892, 3, -0.5, 893, 3, -0.5
*EQUATION
3
2201, 1, 1.0, 875, 1, -0.5, 895, 1, -0.5
*EQUATION
3
2201, 2, 1.0, 875, 2, -0.5, 895, 2, -0.5
*EQUATION
3
2201, 3, 1.0, 875, 3, -0.5, 895, 3, -0.5
*EQUATION
5
2202, 1, 1.0, 845, 1, -0.25, 893, 1, -0.25, 894, 1, -0.25, 846, 1, -0.25
*EQUATION
5
2202, 2, 1.0, 845, 2, -0.25, 893, 2, -0.25, 894, 2, -0.25, 846, 2, -0.25
*EQUATION
5
2202, 3, 1.0, 845, 3, -0.25, 893, 3, -0.25, 894, 3, -0.25, 846, 3, -0.25
*EQUATION
3
2203, 1, 1.0, 846, 1, -0.5, 894, 1, -0.5
*EQUATION
3
2203, 2, 1.0, 846, 2, -0.5, 894, 2, -0.5
*EQUATION
3
2203, 3, 1.0, 846, 3, -0.5, 894, 3, -0.5
*EQUATION
5
2206, 1, 1.0, 847, 1, -0.25, 895, 1, -0.25, 896, 1, -0.25, 848, 1, -0.25
*EQUATION
5
2206, 2, 1.0, 847, 2, -0.25, 895, 2, -0.25, 896, 2, -0.25, 848, 2, -0.25
*EQUATION
5
2206, 3, 1.0, 847, 3, -0.25, 895, 3, -0.25, 896, 3, -0.25, 848, 3, -0.25
*EQUATION
3
2207, 1, 1.0, 848, 1, -0.5, 896, 1, -0.5
*EQUATION
3
2207, 2, 1.0, 848, 2, -0.5, 896, 2, -0.5
*EQUATION
3
2207, 3, 1.0, 848, 3, -0.5, 896, 3, -0.5
*EQUATION
3
2208, 1, 1.0, 893, 1, -0.5, 894, 1, -0.5
*EQUATION
3
2208, 2, 1.0, 893, 2, -0.5, 894, 2, -0.5
*EQUATION
3
2208, 3, 1.0, 893, 3, -0.5, 894, 3, -0.5
*EQUATION
3
2211, 1, 1.0, 895, 1, -0.5, 896, 1, -0.5
*EQUATION
3
2211, 2, 1.0, 895, 2, -0.5, 896, 2, -0.5
*EQUATION
3
2211, 3, 1.0, 895, 3, -0.5, 896, 3, -0.5
*EQUATION
5
2212, 1, 1.0, 834, 1, -0.25, 882, 1, -0.25, 899, 1, -0.25, 851, 1, -0.25
*EQUATION
5
2212, 2, 1.0, 834, 2, -0.25, 882, 2, -0.25, 899, 2, -0.25, 851, 2, -0.25
*EQUATION
5
2212, 3, 1.0, 834, 3, -0.25, 882, 3, -0.25, 899, 3, -0.25, 851, 3, -0.25
*EQUATION
3
2213, 1, 1.0, 851, 1, -0.5, 899, 1, -0.5
*EQUATION
3
2213, 2, 1.0, 851, 2, -0.5, 899, 2, -0.5
*EQUATION
3
2213, 3, 1.0, 851, 3, -0.5, 899, 3, -0.5
*EQUATION
3
2217, 1, 1.0, 853, 1, -0.5, 901, 1, -0.5
*EQUATION
3
2217, 2, 1.0, 853, 2, -0.5, 901, 2, -0.5
*EQUATION
3
2217, 3, 1.0, 853, 3, -0.5, 901, 3, -0.5
*EQUATION
5
2218, 1, 1.0, 853, 1, -0.25, 901, 1, -0.25, 902, 1, -0.25, 854, 1, -0.25
*EQUATION
5
2218, 2, 1.0, 853, 2, -0.25, 901, 2, -0.25, 902, 2, -0.25, 854, 2, -0.25
*EQUATION
5
2218, 3, 1.0, 853, 3, -0.25, 901, 3, -0.25, 902, 3, -0.25, 854, 3, -0.25
*EQUATION
3
2219, 1, 1.0, 854, 1, -0.5, 902, 1, -0.5
*EQUATION
3
2219, 2, 1.0, 854, 2, -0.5, 902, 2, -0.5
*EQUATION
3
2219, 3, 1.0, 854, 3, -0.5, 902, 3, -0.5
*EQUATION
3
2220, 1, 1.0, 882, 1, -0.5, 899, 1, -0.5
*EQUATION
3
2220, 2, 1.0, 882, 2, -0.5, 899, 2, -0.5
*EQUATION
3
2220, 3, 1.0, 882, 3, -0.5, 899, 3, -0.5
*EQUATION
3
2224, 1, 1.0, 901, 1, -0.5, 902, 1, -0.5
*EQUATION
3
2224, 2, 1.0, 901, 2, -0.5, 902, 2, -0.5
*EQUATION
3
2224, 3, 1.0, 901, 3, -0.5, 902, 3, -0.5
*EQUATION
5
2225, 1, 1.0, 851, 1, -0.25, 899, 1, -0.25, 900, 1, -0.25, 852, 1, -0.25
*EQUATION
5
2225, 2, 1.0, 851, 2, -0.25, 899, 2, -0.25, 900, 2, -0.25, 852, 2, -0.25
*EQUATION
5
2225, 3, 1.0, 851, 3, -0.25, 899, 3, -0.25, 900, 3, -0.25, 852, 3, -0.25
*EQUATION
3
2226, 1, 1.0, 852, 1, -0.5, 900, 1, -0.5
*EQUATION
3
2226, 2, 1.0, 852, 2, -0.5, 900, 2, -0.5
*EQUATION
3
2226, 3, 1.0, 852, 3, -0.5, 900, 3, -0.5
*EQUATION
5
2229, 1, 1.0, 854, 1, -0.25, 902, 1, -0.25, 903, 1, -0.25, 855, 1, -0.25
*EQUATION
5
2229, 2, 1.0, 854, 2, -0.25, 902, 2, -0.25, 903, 2, -0.25, 855, 2, -0.25
*EQUATION
5
2229, 3, 1.0, 854, 3, -0.25, 902, 3, -0.25, 903, 3, -0.25, 855, 3, -0.25
*EQUATION
3
2230, 1, 1.0, 855, 1, -0.5, 903, 1, -0.5
*EQUATION
3
2230, 2, 1.0, 855, 2, -0.5, 903, 2, -0.5
*EQUATION
3
2230, 3, 1.0, 855, 3, -0.5, 903, 3, -0.5
*EQUATION
3
2231, 1, 1.0, 899, 1, -0.5, 900, 1, -0.5
*EQUATION
3
2231, 2, 1.0, 899, 2, -0.5, 900, 2, -0.5
*EQUATION
3
2231, 3, 1.0, 899, 3, -0.5, 900, 3, -0.5
*EQUATION
3
2234, 1, 1.0, 902, 1, -0.5, 903, 1, -0.5
*EQUATION
3
2234, 2, 1.0, 902, 2, -0.5, 903, 2, -0.5
*EQUATION
3
2234, 3, 1.0, 902, 3, -0.5, 903, 3, -0.5
*EQUATION
3
2235, 1, 1.0, 856, 1, -0.5, 857, 1, -0.5
*EQUATION
3
2235, 2, 1.0, 856, 2, -0.5, 857, 2, -0.5
*EQUATION
3
2235, 3, 1.0, 856, 3, -0.5, 857, 3, -0.5
*EQUATION
3
2236, 1, 1.0, 856, 1, -0.5, 859, 1, -0.5
*EQUATION
3
2236, 2, 1.0, 856, 2, -0.5, 859, 2, -0.5
*EQUATION
3
2236, 3, 1.0, 856, 3, -0.5, 859, 3, -0.5
*EQUATION
5
2237, 1, 1.0, 856, 1, -0.25, 859, 1, -0.25, 860, 1, -0.25, 857, 1, -0.25
*EQUATION
5
2237, 2, 1.0, 856, 2, -0.25, 859, 2, -0.25, 860, 2, -0.25, 857, 2, -0.25
*EQUATION
5
2237, 3, 1.0, 856, 3, -0.25, 859, 3, -0.25, 860, 3, -0.25, 857, 3, -0.25
*EQUATION
3
2238, 1, 1.0, 857, 1, -0.5, 860, 1, -0.5
*EQUATION
3
2238, 2, 1.0, 857, 2, -0.5, 860, 2, -0.5
*EQUATION
3
2238, 3, 1.0, 857, 3, -0.5, 860, 3, -0.5
*EQUATION
3
2239, 1, 1.0, 856, 1, -0.5, 904, 1, -0.5
*EQUATION
3
2239, 2, 1.0, 856, 2, -0.5, 904, 2, -0.5
*EQUATION
3
2239, 3, 1.0, 856, 3, -0.5, 904, 3, -0.5
*EQUATION
5
2240, 1, 1.0, 856, 1, -0.25, 904, 1, -0.25, 905, 1, -0.25, 857, 1, -0.25
*EQUATION
5
2240, 2, 1.0, 856, 2, -0.25, 904, 2, -0.25, 905, 2, -0.25, 857, 2, -0.25
*EQUATION
5
2240, 3, 1.0, 856, 3, -0.25, 904, 3, -0.25, 905, 3, -0.25, 857, 3, -0.25
*EQUATION
3
2241, 1, 1.0, 857, 1, -0.5, 905, 1, -0.5
*EQUATION
3
2241, 2, 1.0, 857, 2, -0.5, 905, 2, -0.5
*EQUATION
3
2241, 3, 1.0, 857, 3, -0.5, 905, 3, -0.5
*EQUATION
3
2245, 1, 1.0, 904, 1, -0.5, 905, 1, -0.5
*EQUATION
3
2245, 2, 1.0, 904, 2, -0.5, 905, 2, -0.5
*EQUATION
3
2245, 3, 1.0, 904, 3, -0.5, 905, 3, -0.5
*EQUATION
3
2249, 1, 1.0, 857, 1, -0.5, 858, 1, -0.5
*EQUATION
3
2249, 2, 1.0, 857, 2, -0.5, 858, 2, -0.5
*EQUATION
3
2249, 3, 1.0, 857, 3, -0.5, 858, 3, -0.5
*EQUATION
5
2250, 1, 1.0, 857, 1, -0.25, 860, 1, -0.25, 861, 1, -0.25, 858, 1, -0.25
*EQUATION
5
2250, 2, 1.0, 857, 2, -0.25, 860, 2, -0.25, 861, 2, -0.25, 858, 2, -0.25
*EQUATION
5
2250, 3, 1.0, 857, 3, -0.25, 860, 3, -0.25, 861, 3, -0.25, 858, 3, -0.25
*EQUATION
3
2251, 1, 1.0, 858, 1, -0.5, 861, 1, -0.5
*EQUATION
3
2251, 2, 1.0, 858, 2, -0.5, 861, 2, -0.5
*EQUATION
3
2251, 3, 1.0, 858, 3, -0.5, 861, 3, -0.5
*EQUATION
5
2252, 1, 1.0, 857, 1, -0.25, 905, 1, -0.25, 906, 1, -0.25, 858, 1, -0.25
*EQUATION
5
2252, 2, 1.0, 857, 2, -0.25, 905, 2, -0.25, 906, 2, -0.25, 858, 2, -0.25
*EQUATION
5
2252, 3, 1.0, 857, 3, -0.25, 905, 3, -0.25, 906, 3, -0.25, 858, 3, -0.25
*EQUATION
3
2253, 1, 1.0, 858, 1, -0.5, 906, 1, -0.5
*EQUATION
3
2253, 2, 1.0, 858, 2, -0.5, 906, 2, -0.5
*EQUATION
3
2253, 3, 1.0, 858, 3, -0.5, 906, 3, -0.5
*EQUATION
3
2256, 1, 1.0, 905, 1, -0.5, 906, 1, -0.5
*EQUATION
3
2256, 2, 1.0, 905, 2, -0.5, 906, 2, -0.5
*EQUATION
3
2256, 3, 1.0, 905, 3, -0.5, 906, 3, -0.5
*BOUNDARY
CLAMP, 1, 3, 0.0
*STEP
*STATIC
*CLOAD
887, 3, -294.117647059
888, 3, -294.117647059
891, 3, -294.117647059
894, 3, -294.117647059
896, 3, -294.117647059
898, 3, -294.117647059
900, 3, -294.117647059
903, 3, -294.117647059
906, 3, -294.117647059
909, 3, -294.117647059
912, 3, -294.117647059
1452, 3, -294.117647059
1485, 3, -294.117647059
2187, 3, -294.117647059
2210, 3, -294.117647059
2233, 3, -294.117647059
2258, 3, -294.117647059
*NODE FILE
U
*EL FILE
S, ENER
*NODE PRINT, NSET=TIP_TOP
U
*NODE PRINT, NSET=CLAMP
RF
*EL PRINT, ELSET=EALL
ELSE
*ENERGY PRINT
*END STEP
