*HEADING
T02 S-LIN hanging 8-split zz cycle 1
units: mm, N, s, MPa. Material is illustrative steel, not a coupon card.
E=210000.0 nu=0.3. load -5000.0 N on TIP_TOP.
*NODE, NSET=NALL
1, 0, -10, 0
2, 111.111111111, -10, 17.2839506173
3, 111.111111111, 0, 17.2839506173
4, 0, 0, 0
5, 0, -10, 48
6, 111.111111111, -10, 61.8271604938
7, 111.111111111, 0, 61.8271604938
8, 0, 0, 48
9, 0, -10, 96
10, 111.111111111, -10, 106.37037037
11, 111.111111111, 0, 106.37037037
12, 0, 0, 96
13, 0, -10, 144
14, 111.111111111, -10, 150.913580247
15, 111.111111111, 0, 150.913580247
16, 0, 0, 144
17, 0, -10, 192
18, 111.111111111, -10, 195.456790123
19, 111.111111111, 0, 195.456790123
20, 0, 0, 192
** ... 1164 like lines cut
*ELEMENT, TYPE=C3D8, ELSET=EALL
1, 1, 2, 3, 4, 5, 6, 7, 8
2, 5, 6, 7, 8, 9, 10, 11, 12
3, 9, 10, 11, 12, 13, 14, 15, 16
4, 13, 14, 15, 16, 17, 18, 19, 20
5, 17, 18, 19, 20, 21, 22, 23, 24
6, 4, 3, 25, 26, 8, 7, 27, 28
7, 8, 7, 27, 28, 12, 11, 29, 30
8, 12, 11, 29, 30, 16, 15, 31, 32
9, 16, 15, 31, 32, 20, 19, 33, 34
10, 20, 19, 33, 34, 24, 23, 35, 36
11, 37, 38, 39, 40, 41, 42, 43, 44
12, 41, 42, 43, 44, 45, 46, 47, 48
13, 40, 39, 49, 50, 44, 43, 51, 52
14, 44, 43, 51, 52, 48, 47, 53, 54
15, 50, 49, 55, 56, 52, 51, 57, 58
16, 52, 51, 57, 58, 54, 53, 59, 60
17, 56, 55, 22, 21, 58, 57, 61, 62
18, 58, 57, 61, 62, 60, 59, 63, 64
19, 21, 22, 23, 24, 62, 61, 65, 66
20, 62, 61, 65, 66, 64, 63, 67, 68
** ... 667 like lines cut
*NSET, NSET=CLAMP
1, 4, 5, 8, 9, 12, 13, 16, 17, 20, 21, 24, 26, 28, 30, 32
34, 36, 37, 40, 41, 44, 45, 48, 50, 52, 54, 56, 58, 60, 62, 64
66, 68, 70, 72, 74, 76, 78, 80, 82, 84, 86, 88, 90, 92, 94, 96
*NSET, NSET=TIP_TOP
887, 888, 891, 894, 896, 898, 900, 903, 906, 909, 912
*MATERIAL, NAME=STEEL
*ELASTIC
210000, 0.3
*SOLID SECTION, ELSET=EALL, MATERIAL=STEEL
*EQUATION
3
913, 1, 1.0, 290, 1, -0.5, 292, 1, -0.5
*EQUATION
3
913, 2, 1.0, 290, 2, -0.5, 292, 2, -0.5
*EQUATION
3
913, 3, 1.0, 290, 3, -0.5, 292, 3, -0.5
*EQUATION
3
914, 1, 1.0, 290, 1, -0.5, 301, 1, -0.5
*EQUATION
3
914, 2, 1.0, 290, 2, -0.5, 301, 2, -0.5
*EQUATION
3
914, 3, 1.0, 290, 3, -0.5, 301, 3, -0.5
*EQUATION
5
915, 1, 1.0, 290, 1, -0.25, 301, 1, -0.25, 302, 1, -0.25, 292, 1, -0.25
*EQUATION
5
915, 2, 1.0, 290, 2, -0.25, 301, 2, -0.25, 302, 2, -0.25, 292, 2, -0.25
*EQUATION
5
915, 3, 1.0, 290, 3, -0.25, 301, 3, -0.25, 302, 3, -0.25, 292, 3, -0.25
*EQUATION
3
916, 1, 1.0, 292, 1, -0.5, 302, 1, -0.5
*EQUATION
3
916, 2, 1.0, 292, 2, -0.5, 302, 2, -0.5
*EQUATION
3
916, 3, 1.0, 292, 3, -0.5, 302, 3, -0.5
*EQUATION
3
917, 1, 1.0, 301, 1, -0.5, 302, 1, -0.5
*EQUATION
3
917, 2, 1.0, 301, 2, -0.5, 302, 2, -0.5
*EQUATION
3
917, 3, 1.0, 301, 3, -0.5, 302, 3, -0.5
*EQUATION
3
918, 1, 1.0, 290, 1, -0.5, 338, 1, -0.5
*EQUATION
3
918, 2, 1.0, 290, 2, -0.5, 338, 2, -0.5
*EQUATION
3
918, 3, 1.0, 290, 3, -0.5, 338, 3, -0.5
*EQUATION
5
919, 1, 1.0, 290, 1, -0.25, 338, 1, -0.25, 340, 1, -0.25, 292, 1, -0.25
*EQUATION
5
919, 2, 1.0, 290, 2, -0.25, 338, 2, -0.25, 340, 2, -0.25, 292, 2, -0.25
*EQUATION
5
919, 3, 1.0, 290, 3, -0.25, 338, 3, -0.25, 340, 3, -0.25, 292, 3, -0.25
*EQUATION
3
920, 1, 1.0, 292, 1, -0.5, 340, 1, -0.5
*EQUATION
3
920, 2, 1.0, 292, 2, -0.5, 340, 2, -0.5
*EQUATION
3
920, 3, 1.0, 292, 3, -0.5, 340, 3, -0.5
*EQUATION
5
923, 1, 1.0, 292, 1, -0.25, 340, 1, -0.25, 350, 1, -0.25, 302, 1, -0.25
*EQUATION
5
923, 2, 1.0, 292, 2, -0.25, 340, 2, -0.25, 350, 2, -0.25, 302, 2, -0.25
*EQUATION
5
923, 3, 1.0, 292, 3, -0.25, 340, 3, -0.25, 350, 3, -0.25, 302, 3, -0.25
*EQUATION
3
926, 1, 1.0, 302, 1, -0.5, 350, 1, -0.5
*EQUATION
3
926, 2, 1.0, 302, 2, -0.5, 350, 2, -0.5
*EQUATION
3
926, 3, 1.0, 302, 3, -0.5, 350, 3, -0.5
*EQUATION
3
927, 1, 1.0, 338, 1, -0.5, 340, 1, -0.5
*EQUATION
3
927, 2, 1.0, 338, 2, -0.5, 340, 2, -0.5
*EQUATION
3
927, 3, 1.0, 338, 3, -0.5, 340, 3, -0.5
*EQUATION
3
930, 1, 1.0, 340, 1, -0.5, 350, 1, -0.5
*EQUATION
3
930, 2, 1.0, 340, 2, -0.5, 350, 2, -0.5
*EQUATION
3
930, 3, 1.0, 340, 3, -0.5, 350, 3, -0.5
*EQUATION
3
932, 1, 1.0, 337, 1, -0.5, 339, 1, -0.5
*EQUATION
3
932, 2, 1.0, 337, 2, -0.5, 339, 2, -0.5
*EQUATION
3
932, 3, 1.0, 337, 3, -0.5, 339, 3, -0.5
*EQUATION
3
933, 1, 1.0, 337, 1, -0.5, 338, 1, -0.5
*EQUATION
3
933, 2, 1.0, 337, 2, -0.5, 338, 2, -0.5
*EQUATION
3
933, 3, 1.0, 337, 3, -0.5, 338, 3, -0.5
*EQUATION
5
934, 1, 1.0, 337, 1, -0.25, 338, 1, -0.25, 340, 1, -0.25, 339, 1, -0.25
*EQUATION
5
934, 2, 1.0, 337, 2, -0.25, 338, 2, -0.25, 340, 2, -0.25, 339, 2, -0.25
*EQUATION
5
934, 3, 1.0, 337, 3, -0.25, 338, 3, -0.25, 340, 3, -0.25, 339, 3, -0.25
*EQUATION
3
935, 1, 1.0, 339, 1, -0.5, 340, 1, -0.5
*EQUATION
3
935, 2, 1.0, 339, 2, -0.5, 340, 2, -0.5
*EQUATION
3
935, 3, 1.0, 339, 3, -0.5, 340, 3, -0.5
*EQUATION
3
938, 1, 1.0, 339, 1, -0.5, 387, 1, -0.5
*EQUATION
3
938, 2, 1.0, 339, 2, -0.5, 387, 2, -0.5
*EQUATION
3
938, 3, 1.0, 339, 3, -0.5, 387, 3, -0.5
*EQUATION
5
941, 1, 1.0, 339, 1, -0.25, 387, 1, -0.25, 388, 1, -0.25, 340, 1, -0.25
*EQUATION
5
941, 2, 1.0, 339, 2, -0.25, 387, 2, -0.25, 388, 2, -0.25, 340, 2, -0.25
*EQUATION
5
941, 3, 1.0, 339, 3, -0.25, 387, 3, -0.25, 388, 3, -0.25, 340, 3, -0.25
*EQUATION
3
944, 1, 1.0, 340, 1, -0.5, 388, 1, -0.5
*EQUATION
3
944, 2, 1.0, 340, 2, -0.5, 388, 2, -0.5
*EQUATION
3
944, 3, 1.0, 340, 3, -0.5, 388, 3, -0.5
*EQUATION
3
948, 1, 1.0, 387, 1, -0.5, 388, 1, -0.5
*EQUATION
3
948, 2, 1.0, 387, 2, -0.5, 388, 2, -0.5
*EQUATION
3
948, 3, 1.0, 387, 3, -0.5, 388, 3, -0.5
*EQUATION
5
952, 1, 1.0, 340, 1, -0.25, 388, 1, -0.25, 398, 1, -0.25, 350, 1, -0.25
*EQUATION
5
952, 2, 1.0, 340, 2, -0.25, 388, 2, -0.25, 398, 2, -0.25, 350, 2, -0.25
*EQUATION
5
952, 3, 1.0, 340, 3, -0.25, 388, 3, -0.25, 398, 3, -0.25, 350, 3, -0.25
*EQUATION
3
955, 1, 1.0, 350, 1, -0.5, 398, 1, -0.5
*EQUATION
3
955, 2, 1.0, 350, 2, -0.5, 398, 2, -0.5
*EQUATION
3
955, 3, 1.0, 350, 3, -0.5, 398, 3, -0.5
*EQUATION
3
958, 1, 1.0, 388, 1, -0.5, 398, 1, -0.5
*EQUATION
3
958, 2, 1.0, 388, 2, -0.5, 398, 2, -0.5
*EQUATION
3
958, 3, 1.0, 388, 3, -0.5, 398, 3, -0.5
*EQUATION
3
962, 1, 1.0, 387, 1, -0.5, 435, 1, -0.5
*EQUATION
3
962, 2, 1.0, 387, 2, -0.5, 435, 2, -0.5
*EQUATION
3
962, 3, 1.0, 387, 3, -0.5, 435, 3, -0.5
*EQUATION
5
965, 1, 1.0, 387, 1, -0.25, 435, 1, -0.25, 436, 1, -0.25, 388, 1, -0.25
*EQUATION
5
965, 2, 1.0, 387, 2, -0.25, 435, 2, -0.25, 436, 2, -0.25, 388, 2, -0.25
*EQUATION
5
965, 3, 1.0, 387, 3, -0.25, 435, 3, -0.25, 436, 3, -0.25, 388, 3, -0.25
*EQUATION
3
968, 1, 1.0, 388, 1, -0.5, 436, 1, -0.5
*EQUATION
3
968, 2, 1.0, 388, 2, -0.5, 436, 2, -0.5
*EQUATION
3
968, 3, 1.0, 388, 3, -0.5, 436, 3, -0.5
*EQUATION
3
972, 1, 1.0, 435, 1, -0.5, 436, 1, -0.5
*EQUATION
3
972, 2, 1.0, 435, 2, -0.5, 436, 2, -0.5
*EQUATION
3
972, 3, 1.0, 435, 3, -0.5, 436, 3, -0.5
*EQUATION
5
976, 1, 1.0, 388, 1, -0.25, 436, 1, -0.25, 446, 1, -0.25, 398, 1, -0.25
*EQUATION
5
976, 2, 1.0, 388, 2, -0.25, 436, 2, -0.25, 446, 2, -0.25, 398, 2, -0.25
*EQUATION
5
976, 3, 1.0, 388, 3, -0.25, 436, 3, -0.25, 446, 3, -0.25, 398, 3, -0.25
*EQUATION
3
979, 1, 1.0, 398, 1, -0.5, 446, 1, -0.5
*EQUATION
3
979, 2, 1.0, 398, 2, -0.5, 446, 2, -0.5
*EQUATION
3
979, 3, 1.0, 398, 3, -0.5, 446, 3, -0.5
*EQUATION
3
982, 1, 1.0, 436, 1, -0.5, 446, 1, -0.5
*EQUATION
3
982, 2, 1.0, 436, 2, -0.5, 446, 2, -0.5
*EQUATION
3
982, 3, 1.0, 436, 3, -0.5, 446, 3, -0.5
*EQUATION
3
986, 1, 1.0, 435, 1, -0.5, 483, 1, -0.5
*EQUATION
3
986, 2, 1.0, 435, 2, -0.5, 483, 2, -0.5
*EQUATION
3
986, 3, 1.0, 435, 3, -0.5, 483, 3, -0.5
*EQUATION
5
989, 1, 1.0, 435, 1, -0.25, 483, 1, -0.25, 484, 1, -0.25, 436, 1, -0.25
*EQUATION
5
989, 2, 1.0, 435, 2, -0.25, 483, 2, -0.25, 484, 2, -0.25, 436, 2, -0.25
*EQUATION
5
989, 3, 1.0, 435, 3, -0.25, 483, 3, -0.25, 484, 3, -0.25, 436, 3, -0.25
*EQUATION
3
992, 1, 1.0, 436, 1, -0.5, 484, 1, -0.5
*EQUATION
3
992, 2, 1.0, 436, 2, -0.5, 484, 2, -0.5
*EQUATION
3
992, 3, 1.0, 436, 3, -0.5, 484, 3, -0.5
*EQUATION
3
996, 1, 1.0, 483, 1, -0.5, 484, 1, -0.5
*EQUATION
3
996, 2, 1.0, 483, 2, -0.5, 484, 2, -0.5
*EQUATION
3
996, 3, 1.0, 483, 3, -0.5, 484, 3, -0.5
*EQUATION
5
1000, 1, 1.0, 436, 1, -0.25, 484, 1, -0.25, 494, 1, -0.25, 446, 1, -0.25
*EQUATION
5
1000, 2, 1.0, 436, 2, -0.25, 484, 2, -0.25, 494, 2, -0.25, 446, 2, -0.25
*EQUATION
5
1000, 3, 1.0, 436, 3, -0.25, 484, 3, -0.25, 494, 3, -0.25, 446, 3, -0.25
*EQUATION
3
1003, 1, 1.0, 446, 1, -0.5, 494, 1, -0.5
*EQUATION
3
1003, 2, 1.0, 446, 2, -0.5, 494, 2, -0.5
*EQUATION
3
1003, 3, 1.0, 446, 3, -0.5, 494, 3, -0.5
*EQUATION
3
1006, 1, 1.0, 484, 1, -0.5, 494, 1, -0.5
*EQUATION
3
1006, 2, 1.0, 484, 2, -0.5, 494, 2, -0.5
*EQUATION
3
1006, 3, 1.0, 484, 3, -0.5, 494, 3, -0.5
*EQUATION
3
1010, 1, 1.0, 483, 1, -0.5, 531, 1, -0.5
*EQUATION
3
1010, 2, 1.0, 483, 2, -0.5, 531, 2, -0.5
*EQUATION
3
1010, 3, 1.0, 483, 3, -0.5, 531, 3, -0.5
*EQUATION
5
1013, 1, 1.0, 483, 1, -0.25, 531, 1, -0.25, 532, 1, -0.25, 484, 1, -0.25
*EQUATION
5
1013, 2, 1.0, 483, 2, -0.25, 531, 2, -0.25, 532, 2, -0.25, 484, 2, -0.25
*EQUATION
5
1013, 3, 1.0, 483, 3, -0.25, 531, 3, -0.25, 532, 3, -0.25, 484, 3, -0.25
*EQUATION
3
1016, 1, 1.0, 484, 1, -0.5, 532, 1, -0.5
*EQUATION
3
1016, 2, 1.0, 484, 2, -0.5, 532, 2, -0.5
*EQUATION
3
1016, 3, 1.0, 484, 3, -0.5, 532, 3, -0.5
*EQUATION
3
1020, 1, 1.0, 531, 1, -0.5, 532, 1, -0.5
*EQUATION
3
1020, 2, 1.0, 531, 2, -0.5, 532, 2, -0.5
*EQUATION
3
1020, 3, 1.0, 531, 3, -0.5, 532, 3, -0.5
*EQUATION
5
1024, 1, 1.0, 484, 1, -0.25, 532, 1, -0.25, 542, 1, -0.25, 494, 1, -0.25
*EQUATION
5
1024, 2, 1.0, 484, 2, -0.25, 532, 2, -0.25, 542, 2, -0.25, 494, 2, -0.25
*EQUATION
5
1024, 3, 1.0, 484, 3, -0.25, 532, 3, -0.25, 542, 3, -0.25, 494, 3, -0.25
*EQUATION
3
1027, 1, 1.0, 494, 1, -0.5, 542, 1, -0.5
*EQUATION
3
1027, 2, 1.0, 494, 2, -0.5, 542, 2, -0.5
*EQUATION
3
1027, 3, 1.0, 494, 3, -0.5, 542, 3, -0.5
*EQUATION
3
1030, 1, 1.0, 532, 1, -0.5, 542, 1, -0.5
*EQUATION
3
1030, 2, 1.0, 532, 2, -0.5, 542, 2, -0.5
*EQUATION
3
1030, 3, 1.0, 532, 3, -0.5, 542, 3, -0.5
*EQUATION
3
1034, 1, 1.0, 531, 1, -0.5, 579, 1, -0.5
*EQUATION
3
1034, 2, 1.0, 531, 2, -0.5, 579, 2, -0.5
*EQUATION
3
1034, 3, 1.0, 531, 3, -0.5, 579, 3, -0.5
*EQUATION
5
1037, 1, 1.0, 531, 1, -0.25, 579, 1, -0.25, 580, 1, -0.25, 532, 1, -0.25
*EQUATION
5
1037, 2, 1.0, 531, 2, -0.25, 579, 2, -0.25, 580, 2, -0.25, 532, 2, -0.25
*EQUATION
5
1037, 3, 1.0, 531, 3, -0.25, 579, 3, -0.25, 580, 3, -0.25, 532, 3, -0.25
*EQUATION
3
1040, 1, 1.0, 532, 1, -0.5, 580, 1, -0.5
*EQUATION
3
1040, 2, 1.0, 532, 2, -0.5, 580, 2, -0.5
*EQUATION
3
1040, 3, 1.0, 532, 3, -0.5, 580, 3, -0.5
*EQUATION
3
1044, 1, 1.0, 579, 1, -0.5, 580, 1, -0.5
*EQUATION
3
1044, 2, 1.0, 579, 2, -0.5, 580, 2, -0.5
*EQUATION
3
1044, 3, 1.0, 579, 3, -0.5, 580, 3, -0.5
*EQUATION
5
1048, 1, 1.0, 532, 1, -0.25, 580, 1, -0.25, 590, 1, -0.25, 542, 1, -0.25
*EQUATION
5
1048, 2, 1.0, 532, 2, -0.25, 580, 2, -0.25, 590, 2, -0.25, 542, 2, -0.25
*EQUATION
5
1048, 3, 1.0, 532, 3, -0.25, 580, 3, -0.25, 590, 3, -0.25, 542, 3, -0.25
*EQUATION
3
1051, 1, 1.0, 542, 1, -0.5, 590, 1, -0.5
*EQUATION
3
1051, 2, 1.0, 542, 2, -0.5, 590, 2, -0.5
*EQUATION
3
1051, 3, 1.0, 542, 3, -0.5, 590, 3, -0.5
*EQUATION
3
1054, 1, 1.0, 580, 1, -0.5, 590, 1, -0.5
*EQUATION
3
1054, 2, 1.0, 580, 2, -0.5, 590, 2, -0.5
*EQUATION
3
1054, 3, 1.0, 580, 3, -0.5, 590, 3, -0.5
*EQUATION
3
1058, 1, 1.0, 579, 1, -0.5, 627, 1, -0.5
*EQUATION
3
1058, 2, 1.0, 579, 2, -0.5, 627, 2, -0.5
*EQUATION
3
1058, 3, 1.0, 579, 3, -0.5, 627, 3, -0.5
*EQUATION
5
1061, 1, 1.0, 579, 1, -0.25, 627, 1, -0.25, 628, 1, -0.25, 580, 1, -0.25
*EQUATION
5
1061, 2, 1.0, 579, 2, -0.25, 627, 2, -0.25, 628, 2, -0.25, 580, 2, -0.25
*EQUATION
5
1061, 3, 1.0, 579, 3, -0.25, 627, 3, -0.25, 628, 3, -0.25, 580, 3, -0.25
*EQUATION
3
1064, 1, 1.0, 580, 1, -0.5, 628, 1, -0.5
*EQUATION
3
1064, 2, 1.0, 580, 2, -0.5, 628, 2, -0.5
*EQUATION
3
1064, 3, 1.0, 580, 3, -0.5, 628, 3, -0.5
*EQUATION
3
1068, 1, 1.0, 627, 1, -0.5, 628, 1, -0.5
*EQUATION
3
1068, 2, 1.0, 627, 2, -0.5, 628, 2, -0.5
*EQUATION
3
1068, 3, 1.0, 627, 3, -0.5, 628, 3, -0.5
*EQUATION
5
1072, 1, 1.0, 580, 1, -0.25, 628, 1, -0.25, 638, 1, -0.25, 590, 1, -0.25
*EQUATION
5
1072, 2, 1.0, 580, 2, -0.25, 628, 2, -0.25, 638, 2, -0.25, 590, 2, -0.25
*EQUATION
5
1072, 3, 1.0, 580, 3, -0.25, 628, 3, -0.25, 638, 3, -0.25, 590, 3, -0.25
*EQUATION
3
1075, 1, 1.0, 590, 1, -0.5, 638, 1, -0.5
*EQUATION
3
1075, 2, 1.0, 590, 2, -0.5, 638, 2, -0.5
*EQUATION
3
1075, 3, 1.0, 590, 3, -0.5, 638, 3, -0.5
*EQUATION
3
1078, 1, 1.0, 628, 1, -0.5, 638, 1, -0.5
*EQUATION
3
1078, 2, 1.0, 628, 2, -0.5, 638, 2, -0.5
*EQUATION
3
1078, 3, 1.0, 628, 3, -0.5, 638, 3, -0.5
*EQUATION
3
1082, 1, 1.0, 627, 1, -0.5, 675, 1, -0.5
*EQUATION
3
1082, 2, 1.0, 627, 2, -0.5, 675, 2, -0.5
*EQUATION
3
1082, 3, 1.0, 627, 3, -0.5, 675, 3, -0.5
*EQUATION
5
1085, 1, 1.0, 627, 1, -0.25, 675, 1, -0.25, 676, 1, -0.25, 628, 1, -0.25
*EQUATION
5
1085, 2, 1.0, 627, 2, -0.25, 675, 2, -0.25, 676, 2, -0.25, 628, 2, -0.25
*EQUATION
5
1085, 3, 1.0, 627, 3, -0.25, 675, 3, -0.25, 676, 3, -0.25, 628, 3, -0.25
*EQUATION
3
1088, 1, 1.0, 628, 1, -0.5, 676, 1, -0.5
*EQUATION
3
1088, 2, 1.0, 628, 2, -0.5, 676, 2, -0.5
*EQUATION
3
1088, 3, 1.0, 628, 3, -0.5, 676, 3, -0.5
*EQUATION
3
1092, 1, 1.0, 675, 1, -0.5, 676, 1, -0.5
*EQUATION
3
1092, 2, 1.0, 675, 2, -0.5, 676, 2, -0.5
*EQUATION
3
1092, 3, 1.0, 675, 3, -0.5, 676, 3, -0.5
*EQUATION
5
1096, 1, 1.0, 628, 1, -0.25, 676, 1, -0.25, 686, 1, -0.25, 638, 1, -0.25
*EQUATION
5
1096, 2, 1.0, 628, 2, -0.25, 676, 2, -0.25, 686, 2, -0.25, 638, 2, -0.25
*EQUATION
5
1096, 3, 1.0, 628, 3, -0.25, 676, 3, -0.25, 686, 3, -0.25, 638, 3, -0.25
*EQUATION
3
1099, 1, 1.0, 638, 1, -0.5, 686, 1, -0.5
*EQUATION
3
1099, 2, 1.0, 638, 2, -0.5, 686, 2, -0.5
*EQUATION
3
1099, 3, 1.0, 638, 3, -0.5, 686, 3, -0.5
*EQUATION
3
1102, 1, 1.0, 676, 1, -0.5, 686, 1, -0.5
*EQUATION
3
1102, 2, 1.0, 676, 2, -0.5, 686, 2, -0.5
*EQUATION
3
1102, 3, 1.0, 676, 3, -0.5, 686, 3, -0.5
*EQUATION
3
1106, 1, 1.0, 675, 1, -0.5, 723, 1, -0.5
*EQUATION
3
1106, 2, 1.0, 675, 2, -0.5, 723, 2, -0.5
*EQUATION
3
1106, 3, 1.0, 675, 3, -0.5, 723, 3, -0.5
*EQUATION
5
1109, 1, 1.0, 675, 1, -0.25, 723, 1, -0.25, 724, 1, -0.25, 676, 1, -0.25
*EQUATION
5
1109, 2, 1.0, 675, 2, -0.25, 723, 2, -0.25, 724, 2, -0.25, 676, 2, -0.25
*EQUATION
5
1109, 3, 1.0, 675, 3, -0.25, 723, 3, -0.25, 724, 3, -0.25, 676, 3, -0.25
*EQUATION
3
1112, 1, 1.0, 676, 1, -0.5, 724, 1, -0.5
*EQUATION
3
1112, 2, 1.0, 676, 2, -0.5, 724, 2, -0.5
*EQUATION
3
1112, 3, 1.0, 676, 3, -0.5, 724, 3, -0.5
*EQUATION
3
1113, 1, 1.0, 721, 1, -0.5, 723, 1, -0.5
*EQUATION
3
1113, 2, 1.0, 721, 2, -0.5, 723, 2, -0.5
*EQUATION
3
1113, 3, 1.0, 721, 3, -0.5, 723, 3, -0.5
*EQUATION
3
1114, 1, 1.0, 721, 1, -0.5, 722, 1, -0.5
*EQUATION
3
1114, 2, 1.0, 721, 2, -0.5, 722, 2, -0.5
*EQUATION
3
1114, 3, 1.0, 721, 3, -0.5, 722, 3, -0.5
*EQUATION
5
1115, 1, 1.0, 721, 1, -0.25, 722, 1, -0.25, 724, 1, -0.25, 723, 1, -0.25
*EQUATION
5
1115, 2, 1.0, 721, 2, -0.25, 722, 2, -0.25, 724, 2, -0.25, 723, 2, -0.25
*EQUATION
5
1115, 3, 1.0, 721, 3, -0.25, 722, 3, -0.25, 724, 3, -0.25, 723, 3, -0.25
*EQUATION
3
1116, 1, 1.0, 723, 1, -0.5, 724, 1, -0.5
*EQUATION
3
1116, 2, 1.0, 723, 2, -0.5, 724, 2, -0.5
*EQUATION
3
1116, 3, 1.0, 723, 3, -0.5, 724, 3, -0.5
*EQUATION
3
1117, 1, 1.0, 722, 1, -0.5, 724, 1, -0.5
*EQUATION
3
1117, 2, 1.0, 722, 2, -0.5, 724, 2, -0.5
*EQUATION
3
1117, 3, 1.0, 722, 3, -0.5, 724, 3, -0.5
*EQUATION
5
1120, 1, 1.0, 676, 1, -0.25, 724, 1, -0.25, 734, 1, -0.25, 686, 1, -0.25
*EQUATION
5
1120, 2, 1.0, 676, 2, -0.25, 724, 2, -0.25, 734, 2, -0.25, 686, 2, -0.25
*EQUATION
5
1120, 3, 1.0, 676, 3, -0.25, 724, 3, -0.25, 734, 3, -0.25, 686, 3, -0.25
*EQUATION
3
1123, 1, 1.0, 686, 1, -0.5, 734, 1, -0.5
*EQUATION
3
1123, 2, 1.0, 686, 2, -0.5, 734, 2, -0.5
*EQUATION
3
1123, 3, 1.0, 686, 3, -0.5, 734, 3, -0.5
*EQUATION
3
1124, 1, 1.0, 722, 1, -0.5, 733, 1, -0.5
*EQUATION
3
1124, 2, 1.0, 722, 2, -0.5, 733, 2, -0.5
*EQUATION
3
1124, 3, 1.0, 722, 3, -0.5, 733, 3, -0.5
*EQUATION
5
1125, 1, 1.0, 722, 1, -0.25, 733, 1, -0.25, 734, 1, -0.25, 724, 1, -0.25
*EQUATION
5
1125, 2, 1.0, 722, 2, -0.25, 733, 2, -0.25, 734, 2, -0.25, 724, 2, -0.25
*EQUATION
5
1125, 3, 1.0, 722, 3, -0.25, 733, 3, -0.25, 734, 3, -0.25, 724, 3, -0.25
*EQUATION
3
1126, 1, 1.0, 724, 1, -0.5, 734, 1, -0.5
*EQUATION
3
1126, 2, 1.0, 724, 2, -0.5, 734, 2, -0.5
*EQUATION
3
1126, 3, 1.0, 724, 3, -0.5, 734, 3, -0.5
*EQUATION
3
1127, 1, 1.0, 733, 1, -0.5, 734, 1, -0.5
*EQUATION
3
1127, 2, 1.0, 733, 2, -0.5, 734, 2, -0.5
*EQUATION
3
1127, 3, 1.0, 733, 3, -0.5, 734, 3, -0.5
*EQUATION
3
1128, 1, 1.0, 817, 1, -0.5, 819, 1, -0.5
*EQUATION
3
1128, 2, 1.0, 817, 2, -0.5, 819, 2, -0.5
*EQUATION
3
1128, 3, 1.0, 817, 3, -0.5, 819, 3, -0.5
*EQUATION
3
1129, 1, 1.0, 817, 1, -0.5, 818, 1, -0.5
*EQUATION
3
1129, 2, 1.0, 817, 2, -0.5, 818, 2, -0.5
*EQUATION
3
1129, 3, 1.0, 817, 3, -0.5, 818, 3, -0.5
*EQUATION
5
1130, 1, 1.0, 817, 1, -0.25, 818, 1, -0.25, 820, 1, -0.25, 819, 1, -0.25
*EQUATION
5
1130, 2, 1.0, 817, 2, -0.25, 818, 2, -0.25, 820, 2, -0.25, 819, 2, -0.25
*EQUATION
5
1130, 3, 1.0, 817, 3, -0.25, 818, 3, -0.25, 820, 3, -0.25, 819, 3, -0.25
*EQUATION
3
1131, 1, 1.0, 819, 1, -0.5, 820, 1, -0.5
*EQUATION
3
1131, 2, 1.0, 819, 2, -0.5, 820, 2, -0.5
*EQUATION
3
1131, 3, 1.0, 819, 3, -0.5, 820, 3, -0.5
*EQUATION
3
1132, 1, 1.0, 818, 1, -0.5, 820, 1, -0.5
*EQUATION
3
1132, 2, 1.0, 818, 2, -0.5, 820, 2, -0.5
*EQUATION
3
1132, 3, 1.0, 818, 3, -0.5, 820, 3, -0.5
*EQUATION
3
1147, 1, 1.0, 819, 1, -0.5, 821, 1, -0.5
*EQUATION
3
1147, 2, 1.0, 819, 2, -0.5, 821, 2, -0.5
*EQUATION
3
1147, 3, 1.0, 819, 3, -0.5, 821, 3, -0.5
*EQUATION
5
1148, 1, 1.0, 819, 1, -0.25, 820, 1, -0.25, 822, 1, -0.25, 821, 1, -0.25
*EQUATION
5
1148, 2, 1.0, 819, 2, -0.25, 820, 2, -0.25, 822, 2, -0.25, 821, 2, -0.25
*EQUATION
5
1148, 3, 1.0, 819, 3, -0.25, 820, 3, -0.25, 822, 3, -0.25, 821, 3, -0.25
*EQUATION
3
1149, 1, 1.0, 821, 1, -0.5, 822, 1, -0.5
*EQUATION
3
1149, 2, 1.0, 821, 2, -0.5, 822, 2, -0.5
*EQUATION
3
1149, 3, 1.0, 821, 3, -0.5, 822, 3, -0.5
*EQUATION
3
1150, 1, 1.0, 820, 1, -0.5, 822, 1, -0.5
*EQUATION
3
1150, 2, 1.0, 820, 2, -0.5, 822, 2, -0.5
*EQUATION
3
1150, 3, 1.0, 820, 3, -0.5, 822, 3, -0.5
*EQUATION
3
1152, 1, 1.0, 821, 1, -0.5, 869, 1, -0.5
*EQUATION
3
1152, 2, 1.0, 821, 2, -0.5, 869, 2, -0.5
*EQUATION
3
1152, 3, 1.0, 821, 3, -0.5, 869, 3, -0.5
*EQUATION
5
1154, 1, 1.0, 821, 1, -0.25, 869, 1, -0.25, 870, 1, -0.25, 822, 1, -0.25
*EQUATION
5
1154, 2, 1.0, 821, 2, -0.25, 869, 2, -0.25, 870, 2, -0.25, 822, 2, -0.25
*EQUATION
5
1154, 3, 1.0, 821, 3, -0.25, 869, 3, -0.25, 870, 3, -0.25, 822, 3, -0.25
*EQUATION
3
1156, 1, 1.0, 822, 1, -0.5, 870, 1, -0.5
*EQUATION
3
1156, 2, 1.0, 822, 2, -0.5, 870, 2, -0.5
*EQUATION
3
1156, 3, 1.0, 822, 3, -0.5, 870, 3, -0.5
*EQUATION
3
1159, 1, 1.0, 869, 1, -0.5, 870, 1, -0.5
*EQUATION
3
1159, 2, 1.0, 869, 2, -0.5, 870, 2, -0.5
*EQUATION
3
1159, 3, 1.0, 869, 3, -0.5, 870, 3, -0.5
*EQUATION
3
1161, 1, 1.0, 818, 1, -0.5, 829, 1, -0.5
*EQUATION
3
1161, 2, 1.0, 818, 2, -0.5, 829, 2, -0.5
*EQUATION
3
1161, 3, 1.0, 818, 3, -0.5, 829, 3, -0.5
*EQUATION
5
1162, 1, 1.0, 818, 1, -0.25, 829, 1, -0.25, 830, 1, -0.25, 820, 1, -0.25
*EQUATION
5
1162, 2, 1.0, 818, 2, -0.25, 829, 2, -0.25, 830, 2, -0.25, 820, 2, -0.25
*EQUATION
5
1162, 3, 1.0, 818, 3, -0.25, 829, 3, -0.25, 830, 3, -0.25, 820, 3, -0.25
*EQUATION
3
1163, 1, 1.0, 820, 1, -0.5, 830, 1, -0.5
*EQUATION
3
1163, 2, 1.0, 820, 2, -0.5, 830, 2, -0.5
*EQUATION
3
1163, 3, 1.0, 820, 3, -0.5, 830, 3, -0.5
*EQUATION
3
1164, 1, 1.0, 829, 1, -0.5, 830, 1, -0.5
*EQUATION
3
1164, 2, 1.0, 829, 2, -0.5, 830, 2, -0.5
*EQUATION
3
1164, 3, 1.0, 829, 3, -0.5, 830, 3, -0.5
*EQUATION
5
1175, 1, 1.0, 820, 1, -0.25, 830, 1, -0.25, 831, 1, -0.25, 822, 1, -0.25
*EQUATION
5
1175, 2, 1.0, 820, 2, -0.25, 830, 2, -0.25, 831, 2, -0.25, 822, 2, -0.25
*EQUATION
5
1175, 3, 1.0, 820, 3, -0.25, 830, 3, -0.25, 831, 3, -0.25, 822, 3, -0.25
*EQUATION
3
1176, 1, 1.0, 822, 1, -0.5, 831, 1, -0.5
*EQUATION
3
1176, 2, 1.0, 822, 2, -0.5, 831, 2, -0.5
*EQUATION
3
1176, 3, 1.0, 822, 3, -0.5, 831, 3, -0.5
*EQUATION
3
1177, 1, 1.0, 830, 1, -0.5, 831, 1, -0.5
*EQUATION
3
1177, 2, 1.0, 830, 2, -0.5, 831, 2, -0.5
*EQUATION
3
1177, 3, 1.0, 830, 3, -0.5, 831, 3, -0.5
*EQUATION
5
1179, 1, 1.0, 822, 1, -0.25, 870, 1, -0.25, 879, 1, -0.25, 831, 1, -0.25
*EQUATION
5
1179, 2, 1.0, 822, 2, -0.25, 870, 2, -0.25, 879, 2, -0.25, 831, 2, -0.25
*EQUATION
5
1179, 3, 1.0, 822, 3, -0.25, 870, 3, -0.25, 879, 3, -0.25, 831, 3, -0.25
*EQUATION
3
1181, 1, 1.0, 831, 1, -0.5, 879, 1, -0.5
*EQUATION
3
1181, 2, 1.0, 831, 2, -0.5, 879, 2, -0.5
*EQUATION
3
1181, 3, 1.0, 831, 3, -0.5, 879, 3, -0.5
*EQUATION
3
1183, 1, 1.0, 870, 1, -0.5, 879, 1, -0.5
*EQUATION
3
1183, 2, 1.0, 870, 2, -0.5, 879, 2, -0.5
*EQUATION
3
1183, 3, 1.0, 870, 3, -0.5, 879, 3, -0.5
*BOUNDARY
CLAMP, 1, 3, 0.0
*STEP
*STATIC
*CLOAD
887, 3, -454.545454545
888, 3, -454.545454545
891, 3, -454.545454545
894, 3, -454.545454545
896, 3, -454.545454545
898, 3, -454.545454545
900, 3, -454.545454545
903, 3, -454.545454545
906, 3, -454.545454545
909, 3, -454.545454545
912, 3, -454.545454545
*NODE FILE
U
*EL FILE
S, ENER
*NODE PRINT, NSET=TIP_TOP
U
*NODE PRINT, NSET=CLAMP
RF
*EL PRINT, ELSET=EALL
ELSE
*ENERGY PRINT
*END STEP
