*HEADING
T08 D-LIN t08_d-lin_pso conforming C3D8 frozen T
units: mm, N, s, MPa, t. Illustrative steel, not a coupon card.
beam=T08 case=D-LIN job=t08_d-lin_pso type=C3D8
E=210000.0 nu=0.3 fy=235.0 load=-8000.0 N on TIP_TOP
*NODE, NSET=NALL
1, 0, -16, 0
2, 63.0192048165, -15.6849039759, 3.93870030103
3, 63.0192048165, 0, 3.93870030103
4, 0, 0, 0
5, 0, -16, 42
6, 63.0192048165, -15.6849039759, 45.1509602408
7, 63.0192048165, 0, 45.1509602408
8, 0, 0, 42
9, 0, -16, 84
10, 63.0192048165, -15.6849039759, 86.3632201806
11, 63.0192048165, 0, 86.3632201806
12, 0, 0, 84
13, 0, -16, 126
14, 63.0192048165, -15.6849039759, 127.57548012
15, 63.0192048165, 0, 127.57548012
16, 0, 0, 126
17, 0, -16, 168
18, 63.0192048165, -15.6849039759, 168.78774006
19, 63.0192048165, 0, 168.78774006
20, 0, 0, 168
** ... 1948 like lines cut
*ELEMENT, TYPE=C3D8, ELSET=EALL
1, 1, 2, 3, 4, 5, 6, 7, 8
2, 5, 6, 7, 8, 9, 10, 11, 12
3, 9, 10, 11, 12, 13, 14, 15, 16
4, 13, 14, 15, 16, 17, 18, 19, 20
5, 17, 18, 19, 20, 21, 22, 23, 24
6, 4, 3, 25, 26, 8, 7, 27, 28
7, 8, 7, 27, 28, 12, 11, 29, 30
8, 12, 11, 29, 30, 16, 15, 31, 32
9, 16, 15, 31, 32, 20, 19, 33, 34
10, 20, 19, 33, 34, 24, 23, 35, 36
11, 37, 38, 39, 40, 41, 42, 43, 44
12, 41, 42, 43, 44, 45, 46, 47, 48
13, 40, 39, 49, 50, 44, 43, 51, 52
14, 44, 43, 51, 52, 48, 47, 53, 54
15, 50, 49, 55, 56, 52, 51, 57, 58
16, 52, 51, 57, 58, 54, 53, 59, 60
17, 56, 55, 22, 21, 58, 57, 61, 62
18, 58, 57, 61, 62, 60, 59, 63, 64
19, 21, 22, 23, 24, 62, 61, 65, 66
20, 62, 61, 65, 66, 64, 63, 67, 68
** ... 1180 like lines cut
*NSET, NSET=CLAMP
1, 4, 5, 8, 9, 12, 13, 16, 17, 20, 21, 24, 26, 28, 30, 32
34, 36, 37, 40, 41, 44, 45, 48, 50, 52, 54, 56, 58, 60, 62, 64
66, 68, 70, 72, 74, 76, 78, 80, 82, 84, 86, 88, 90, 92, 94, 96
*NSET, NSET=TIP_TOP
1943, 1944, 1947, 1950, 1952, 1954, 1956, 1959, 1962, 1965, 1968
*NSET, NSET=TIP_FLANGE
1943, 1944, 1947, 1950, 1952, 1954, 1956, 1959, 1962, 1965, 1968
*MATERIAL, NAME=STEEL
*ELASTIC
210000, 0.3
*DENSITY
7.85e-09
*SOLID SECTION, ELSET=EALL, MATERIAL=STEEL
*BOUNDARY
CLAMP, 1, 3, 0.0
*AMPLITUDE, NAME=PULSE
0, 0, 0.004, 1, 0.02, 0, 0.05, 0
*STEP, INC=80
*DYNAMIC
5.0e-4, 0.050, 1.0e-6, 2.0e-3
*CLOAD, AMPLITUDE=PULSE
1943, 3, -727.272727273
1944, 3, -727.272727273
1947, 3, -727.272727273
1950, 3, -727.272727273
1952, 3, -727.272727273
1954, 3, -727.272727273
1956, 3, -727.272727273
1959, 3, -727.272727273
1962, 3, -727.272727273
1965, 3, -727.272727273
1968, 3, -727.272727273
*NODE FILE, FREQUENCY=5
U
*EL FILE, FREQUENCY=5
S, ENER
*NODE PRINT, NSET=TIP_TOP
U
*NODE PRINT, NSET=CLAMP
RF
*EL PRINT, ELSET=EALL
ELSE
*ENERGY PRINT
*END STEP
