*HEADING
T01 S-LIN hanging 8-split zz cycle 4
units: mm, N, s, MPa. Material is illustrative steel, not a coupon card.
E=210000.0 nu=0.3. load -5000.0 N on TIP_TOP.
*NODE, NSET=NALL
1, 0, -10, 0
2, 111.111111111, -10, 6.66666666667
3, 111.111111111, 0, 6.66666666667
4, 0, 0, 0
5, 0, -10, 40
6, 111.111111111, -10, 45.3333333333
7, 111.111111111, 0, 45.3333333333
8, 0, 0, 40
9, 0, -10, 80
10, 111.111111111, -10, 84
11, 111.111111111, 0, 84
12, 0, 0, 80
13, 0, -10, 120
14, 111.111111111, -10, 122.666666667
15, 111.111111111, 0, 122.666666667
16, 0, 0, 120
17, 0, -10, 160
18, 111.111111111, -10, 161.333333333
19, 111.111111111, 0, 161.333333333
20, 0, 0, 160
** ... 2584 like lines cut
*ELEMENT, TYPE=C3D8, ELSET=EALL
1, 1, 1119, 1122, 1115, 1114, 1120, 1123, 1116
2, 1114, 1120, 1123, 1116, 5, 1121, 1124, 1117
3, 1115, 1122, 1125, 4, 1116, 1123, 1126, 1118
4, 1116, 1123, 1126, 1118, 1117, 1124, 1127, 8
5, 1119, 1701, 1704, 1697, 1696, 1702, 1705, 1698
6, 1696, 1702, 1705, 1698, 1120, 1703, 1706, 1699
7, 1697, 1704, 1707, 1122, 1698, 1705, 1708, 1700
8, 1698, 1705, 1708, 1700, 1699, 1706, 1709, 1123
9, 1701, 2, 1711, 1704, 1702, 1710, 1712, 1705
10, 1702, 1710, 1712, 1705, 1703, 1128, 1713, 1706
11, 1704, 1711, 1129, 1707, 1705, 1712, 1714, 1708
12, 1705, 1712, 1714, 1708, 1706, 1713, 1130, 1709
13, 1120, 1128, 1130, 1123, 1121, 6, 1131, 1124
14, 1122, 1707, 1719, 1715, 1700, 1708, 1720, 1716
15, 1700, 1708, 1720, 1716, 1123, 1709, 1721, 1717
16, 1715, 1719, 1722, 1125, 1716, 1720, 1723, 1718
17, 1716, 1720, 1723, 1718, 1717, 1721, 1724, 1126
18, 1707, 1129, 1725, 1719, 1708, 1714, 1726, 1720
19, 1708, 1714, 1726, 1720, 1709, 1130, 1727, 1721
20, 1719, 1725, 3, 1722, 1720, 1726, 1728, 1723
** ... 1605 like lines cut
*NSET, NSET=CLAMP
1, 4, 5, 8, 9, 12, 13, 16, 17, 20, 21, 24, 26, 28, 30, 32
34, 36, 37, 40, 41, 44, 45, 48, 50, 52, 54, 56, 58, 60, 62, 64
66, 68, 70, 72, 74, 76, 78, 80, 82, 84, 86, 88, 90, 92, 94, 96
1114, 1115, 1116, 1117, 1118, 1133, 1134, 1135, 1136, 1729, 1730, 1731, 1732, 1743, 1744, 1745
1746, 1785, 1786, 1787, 1795, 1796, 1797
*NSET, NSET=TIP_TOP
887, 888, 891, 894, 896, 898, 900, 903, 906, 909, 912, 2539, 2559, 2579, 2603
*MATERIAL, NAME=STEEL
*ELASTIC
210000, 0.3
*SOLID SECTION, ELSET=EALL, MATERIAL=STEEL
*EQUATION
3
1159, 1, 1.0, 99, 1, -0.5, 100, 1, -0.5
*EQUATION
3
1159, 2, 1.0, 99, 2, -0.5, 100, 2, -0.5
*EQUATION
3
1159, 3, 1.0, 99, 3, -0.5, 100, 3, -0.5
*EQUATION
3
1169, 1, 1.0, 100, 1, -0.5, 110, 1, -0.5
*EQUATION
3
1169, 2, 1.0, 100, 2, -0.5, 110, 2, -0.5
*EQUATION
3
1169, 3, 1.0, 100, 3, -0.5, 110, 3, -0.5
*EQUATION
3
1290, 1, 1.0, 683, 1, -0.5, 684, 1, -0.5
*EQUATION
3
1290, 2, 1.0, 683, 2, -0.5, 684, 2, -0.5
*EQUATION
3
1290, 3, 1.0, 683, 3, -0.5, 684, 3, -0.5
*EQUATION
3
1294, 1, 1.0, 683, 1, -0.5, 731, 1, -0.5
*EQUATION
3
1294, 2, 1.0, 683, 2, -0.5, 731, 2, -0.5
*EQUATION
3
1294, 3, 1.0, 683, 3, -0.5, 731, 3, -0.5
*EQUATION
3
1304, 1, 1.0, 731, 1, -0.5, 732, 1, -0.5
*EQUATION
3
1304, 2, 1.0, 731, 2, -0.5, 732, 2, -0.5
*EQUATION
3
1304, 3, 1.0, 731, 3, -0.5, 732, 3, -0.5
*EQUATION
3
1315, 1, 1.0, 684, 1, -0.5, 690, 1, -0.5
*EQUATION
3
1315, 2, 1.0, 684, 2, -0.5, 690, 2, -0.5
*EQUATION
3
1315, 3, 1.0, 684, 3, -0.5, 690, 3, -0.5
*EQUATION
3
1322, 1, 1.0, 690, 1, -0.5, 738, 1, -0.5
*EQUATION
3
1322, 2, 1.0, 690, 2, -0.5, 738, 2, -0.5
*EQUATION
3
1322, 3, 1.0, 690, 3, -0.5, 738, 3, -0.5
*EQUATION
3
1325, 1, 1.0, 732, 1, -0.5, 738, 1, -0.5
*EQUATION
3
1325, 2, 1.0, 732, 2, -0.5, 738, 2, -0.5
*EQUATION
3
1325, 3, 1.0, 732, 3, -0.5, 738, 3, -0.5
*EQUATION
3
1339, 1, 1.0, 731, 1, -0.5, 779, 1, -0.5
*EQUATION
3
1339, 2, 1.0, 731, 2, -0.5, 779, 2, -0.5
*EQUATION
3
1339, 3, 1.0, 731, 3, -0.5, 779, 3, -0.5
*EQUATION
5
1342, 1, 1.0, 731, 1, -0.25, 779, 1, -0.25, 780, 1, -0.25, 732, 1, -0.25
*EQUATION
5
1342, 2, 1.0, 731, 2, -0.25, 779, 2, -0.25, 780, 2, -0.25, 732, 2, -0.25
*EQUATION
5
1342, 3, 1.0, 731, 3, -0.25, 779, 3, -0.25, 780, 3, -0.25, 732, 3, -0.25
*EQUATION
3
1345, 1, 1.0, 732, 1, -0.5, 780, 1, -0.5
*EQUATION
3
1345, 2, 1.0, 732, 2, -0.5, 780, 2, -0.5
*EQUATION
3
1345, 3, 1.0, 732, 3, -0.5, 780, 3, -0.5
*EQUATION
3
1349, 1, 1.0, 779, 1, -0.5, 780, 1, -0.5
*EQUATION
3
1349, 2, 1.0, 779, 2, -0.5, 780, 2, -0.5
*EQUATION
3
1349, 3, 1.0, 779, 3, -0.5, 780, 3, -0.5
*EQUATION
5
1360, 1, 1.0, 732, 1, -0.25, 780, 1, -0.25, 786, 1, -0.25, 738, 1, -0.25
*EQUATION
5
1360, 2, 1.0, 732, 2, -0.25, 780, 2, -0.25, 786, 2, -0.25, 738, 2, -0.25
*EQUATION
5
1360, 3, 1.0, 732, 3, -0.25, 780, 3, -0.25, 786, 3, -0.25, 738, 3, -0.25
*EQUATION
3
1363, 1, 1.0, 738, 1, -0.5, 786, 1, -0.5
*EQUATION
3
1363, 2, 1.0, 738, 2, -0.5, 786, 2, -0.5
*EQUATION
3
1363, 3, 1.0, 738, 3, -0.5, 786, 3, -0.5
*EQUATION
3
1366, 1, 1.0, 780, 1, -0.5, 786, 1, -0.5
*EQUATION
3
1366, 2, 1.0, 780, 2, -0.5, 786, 2, -0.5
*EQUATION
3
1366, 3, 1.0, 780, 3, -0.5, 786, 3, -0.5
*EQUATION
3
1380, 1, 1.0, 779, 1, -0.5, 827, 1, -0.5
*EQUATION
3
1380, 2, 1.0, 779, 2, -0.5, 827, 2, -0.5
*EQUATION
3
1380, 3, 1.0, 779, 3, -0.5, 827, 3, -0.5
*EQUATION
5
1383, 1, 1.0, 779, 1, -0.25, 827, 1, -0.25, 828, 1, -0.25, 780, 1, -0.25
*EQUATION
5
1383, 2, 1.0, 779, 2, -0.25, 827, 2, -0.25, 828, 2, -0.25, 780, 2, -0.25
*EQUATION
5
1383, 3, 1.0, 779, 3, -0.25, 827, 3, -0.25, 828, 3, -0.25, 780, 3, -0.25
*EQUATION
3
1386, 1, 1.0, 780, 1, -0.5, 828, 1, -0.5
*EQUATION
3
1386, 2, 1.0, 780, 2, -0.5, 828, 2, -0.5
*EQUATION
3
1386, 3, 1.0, 780, 3, -0.5, 828, 3, -0.5
*EQUATION
3
1390, 1, 1.0, 827, 1, -0.5, 828, 1, -0.5
*EQUATION
3
1390, 2, 1.0, 827, 2, -0.5, 828, 2, -0.5
*EQUATION
3
1390, 3, 1.0, 827, 3, -0.5, 828, 3, -0.5
*EQUATION
5
1401, 1, 1.0, 780, 1, -0.25, 828, 1, -0.25, 834, 1, -0.25, 786, 1, -0.25
*EQUATION
5
1401, 2, 1.0, 780, 2, -0.25, 828, 2, -0.25, 834, 2, -0.25, 786, 2, -0.25
*EQUATION
5
1401, 3, 1.0, 780, 3, -0.25, 828, 3, -0.25, 834, 3, -0.25, 786, 3, -0.25
*EQUATION
3
1404, 1, 1.0, 786, 1, -0.5, 834, 1, -0.5
*EQUATION
3
1404, 2, 1.0, 786, 2, -0.5, 834, 2, -0.5
*EQUATION
3
1404, 3, 1.0, 786, 3, -0.5, 834, 3, -0.5
*EQUATION
3
1407, 1, 1.0, 828, 1, -0.5, 834, 1, -0.5
*EQUATION
3
1407, 2, 1.0, 828, 2, -0.5, 834, 2, -0.5
*EQUATION
3
1407, 3, 1.0, 828, 3, -0.5, 834, 3, -0.5
*EQUATION
3
1453, 1, 1.0, 339, 1, -0.5, 340, 1, -0.5
*EQUATION
3
1453, 2, 1.0, 339, 2, -0.5, 340, 2, -0.5
*EQUATION
3
1453, 3, 1.0, 339, 3, -0.5, 340, 3, -0.5
*EQUATION
3
1466, 1, 1.0, 340, 1, -0.5, 350, 1, -0.5
*EQUATION
3
1466, 2, 1.0, 340, 2, -0.5, 350, 2, -0.5
*EQUATION
3
1466, 3, 1.0, 340, 3, -0.5, 350, 3, -0.5
*EQUATION
3
1476, 1, 1.0, 438, 1, -0.5, 447, 1, -0.5
*EQUATION
3
1476, 2, 1.0, 438, 2, -0.5, 447, 2, -0.5
*EQUATION
3
1476, 3, 1.0, 438, 3, -0.5, 447, 3, -0.5
*EQUATION
3
1479, 1, 1.0, 438, 1, -0.5, 486, 1, -0.5
*EQUATION
3
1479, 2, 1.0, 438, 2, -0.5, 486, 2, -0.5
*EQUATION
3
1479, 3, 1.0, 438, 3, -0.5, 486, 3, -0.5
*EQUATION
3
1490, 1, 1.0, 485, 1, -0.5, 486, 1, -0.5
*EQUATION
3
1490, 2, 1.0, 485, 2, -0.5, 486, 2, -0.5
*EQUATION
3
1490, 3, 1.0, 485, 3, -0.5, 486, 3, -0.5
*EQUATION
3
1503, 1, 1.0, 535, 1, -0.5, 536, 1, -0.5
*EQUATION
3
1503, 2, 1.0, 535, 2, -0.5, 536, 2, -0.5
*EQUATION
3
1503, 3, 1.0, 535, 3, -0.5, 536, 3, -0.5
*EQUATION
3
1516, 1, 1.0, 536, 1, -0.5, 544, 1, -0.5
*EQUATION
3
1516, 2, 1.0, 536, 2, -0.5, 544, 2, -0.5
*EQUATION
3
1516, 3, 1.0, 536, 3, -0.5, 544, 3, -0.5
*EQUATION
3
1555, 1, 1.0, 635, 1, -0.5, 636, 1, -0.5
*EQUATION
3
1555, 2, 1.0, 635, 2, -0.5, 636, 2, -0.5
*EQUATION
3
1555, 3, 1.0, 635, 3, -0.5, 636, 3, -0.5
*EQUATION
3
1559, 1, 1.0, 635, 1, -0.5, 683, 1, -0.5
*EQUATION
3
1559, 2, 1.0, 635, 2, -0.5, 683, 2, -0.5
*EQUATION
3
1559, 3, 1.0, 635, 3, -0.5, 683, 3, -0.5
*EQUATION
5
1562, 1, 1.0, 635, 1, -0.25, 683, 1, -0.25, 684, 1, -0.25, 636, 1, -0.25
*EQUATION
5
1562, 2, 1.0, 635, 2, -0.25, 683, 2, -0.25, 684, 2, -0.25, 636, 2, -0.25
*EQUATION
5
1562, 3, 1.0, 635, 3, -0.25, 683, 3, -0.25, 684, 3, -0.25, 636, 3, -0.25
*EQUATION
3
1565, 1, 1.0, 636, 1, -0.5, 684, 1, -0.5
*EQUATION
3
1565, 2, 1.0, 636, 2, -0.5, 684, 2, -0.5
*EQUATION
3
1565, 3, 1.0, 636, 3, -0.5, 684, 3, -0.5
*EQUATION
3
1575, 1, 1.0, 636, 1, -0.5, 642, 1, -0.5
*EQUATION
3
1575, 2, 1.0, 636, 2, -0.5, 642, 2, -0.5
*EQUATION
3
1575, 3, 1.0, 636, 3, -0.5, 642, 3, -0.5
*EQUATION
5
1579, 1, 1.0, 636, 1, -0.25, 684, 1, -0.25, 690, 1, -0.25, 642, 1, -0.25
*EQUATION
5
1579, 2, 1.0, 636, 2, -0.25, 684, 2, -0.25, 690, 2, -0.25, 642, 2, -0.25
*EQUATION
5
1579, 3, 1.0, 636, 3, -0.25, 684, 3, -0.25, 690, 3, -0.25, 642, 3, -0.25
*EQUATION
3
1582, 1, 1.0, 642, 1, -0.5, 690, 1, -0.5
*EQUATION
3
1582, 2, 1.0, 642, 2, -0.5, 690, 2, -0.5
*EQUATION
3
1582, 3, 1.0, 642, 3, -0.5, 690, 3, -0.5
*EQUATION
3
1696, 1, 1.0, 1119, 1, -0.5, 1120, 1, -0.5
*EQUATION
3
1696, 2, 1.0, 1119, 2, -0.5, 1120, 2, -0.5
*EQUATION
3
1696, 3, 1.0, 1119, 3, -0.5, 1120, 3, -0.5
*EQUATION
3
1697, 1, 1.0, 1119, 1, -0.5, 1122, 1, -0.5
*EQUATION
3
1697, 2, 1.0, 1119, 2, -0.5, 1122, 2, -0.5
*EQUATION
3
1697, 3, 1.0, 1119, 3, -0.5, 1122, 3, -0.5
*EQUATION
5
1698, 1, 1.0, 1119, 1, -0.25, 1122, 1, -0.25, 1123, 1, -0.25, 1120, 1, -0.25
*EQUATION
5
1698, 2, 1.0, 1119, 2, -0.25, 1122, 2, -0.25, 1123, 2, -0.25, 1120, 2, -0.25
*EQUATION
5
1698, 3, 1.0, 1119, 3, -0.25, 1122, 3, -0.25, 1123, 3, -0.25, 1120, 3, -0.25
*EQUATION
3
1699, 1, 1.0, 1120, 1, -0.5, 1123, 1, -0.5
*EQUATION
3
1699, 2, 1.0, 1120, 2, -0.5, 1123, 2, -0.5
*EQUATION
3
1699, 3, 1.0, 1120, 3, -0.5, 1123, 3, -0.5
*EQUATION
3
1700, 1, 1.0, 1122, 1, -0.5, 1123, 1, -0.5
*EQUATION
3
1700, 2, 1.0, 1122, 2, -0.5, 1123, 2, -0.5
*EQUATION
3
1700, 3, 1.0, 1122, 3, -0.5, 1123, 3, -0.5
*EQUATION
3
1703, 1, 1.0, 1120, 1, -0.5, 1128, 1, -0.5
*EQUATION
3
1703, 2, 1.0, 1120, 2, -0.5, 1128, 2, -0.5
*EQUATION
3
1703, 3, 1.0, 1120, 3, -0.5, 1128, 3, -0.5
*EQUATION
5
1706, 1, 1.0, 1120, 1, -0.25, 1128, 1, -0.25, 1130, 1, -0.25, 1123, 1, -0.25
*EQUATION
5
1706, 2, 1.0, 1120, 2, -0.25, 1128, 2, -0.25, 1130, 2, -0.25, 1123, 2, -0.25
*EQUATION
5
1706, 3, 1.0, 1120, 3, -0.25, 1128, 3, -0.25, 1130, 3, -0.25, 1123, 3, -0.25
*EQUATION
3
1709, 1, 1.0, 1123, 1, -0.5, 1130, 1, -0.5
*EQUATION
3
1709, 2, 1.0, 1123, 2, -0.5, 1130, 2, -0.5
*EQUATION
3
1709, 3, 1.0, 1123, 3, -0.5, 1130, 3, -0.5
*EQUATION
3
1710, 1, 1.0, 2, 1, -0.5, 1128, 1, -0.5
*EQUATION
3
1710, 2, 1.0, 2, 2, -0.5, 1128, 2, -0.5
*EQUATION
3
1710, 3, 1.0, 2, 3, -0.5, 1128, 3, -0.5
*EQUATION
3
1711, 1, 1.0, 2, 1, -0.5, 1129, 1, -0.5
*EQUATION
3
1711, 2, 1.0, 2, 2, -0.5, 1129, 2, -0.5
*EQUATION
3
1711, 3, 1.0, 2, 3, -0.5, 1129, 3, -0.5
*EQUATION
5
1712, 1, 1.0, 2, 1, -0.25, 1129, 1, -0.25, 1130, 1, -0.25, 1128, 1, -0.25
*EQUATION
5
1712, 2, 1.0, 2, 2, -0.25, 1129, 2, -0.25, 1130, 2, -0.25, 1128, 2, -0.25
*EQUATION
5
1712, 3, 1.0, 2, 3, -0.25, 1129, 3, -0.25, 1130, 3, -0.25, 1128, 3, -0.25
*EQUATION
3
1713, 1, 1.0, 1128, 1, -0.5, 1130, 1, -0.5
*EQUATION
3
1713, 2, 1.0, 1128, 2, -0.5, 1130, 2, -0.5
*EQUATION
3
1713, 3, 1.0, 1128, 3, -0.5, 1130, 3, -0.5
*EQUATION
3
1714, 1, 1.0, 1129, 1, -0.5, 1130, 1, -0.5
*EQUATION
3
1714, 2, 1.0, 1129, 2, -0.5, 1130, 2, -0.5
*EQUATION
3
1714, 3, 1.0, 1129, 3, -0.5, 1130, 3, -0.5
*EQUATION
3
1715, 1, 1.0, 1122, 1, -0.5, 1125, 1, -0.5
*EQUATION
3
1715, 2, 1.0, 1122, 2, -0.5, 1125, 2, -0.5
*EQUATION
3
1715, 3, 1.0, 1122, 3, -0.5, 1125, 3, -0.5
*EQUATION
5
1716, 1, 1.0, 1122, 1, -0.25, 1125, 1, -0.25, 1126, 1, -0.25, 1123, 1, -0.25
*EQUATION
5
1716, 2, 1.0, 1122, 2, -0.25, 1125, 2, -0.25, 1126, 2, -0.25, 1123, 2, -0.25
*EQUATION
5
1716, 3, 1.0, 1122, 3, -0.25, 1125, 3, -0.25, 1126, 3, -0.25, 1123, 3, -0.25
*EQUATION
3
1717, 1, 1.0, 1123, 1, -0.5, 1126, 1, -0.5
*EQUATION
3
1717, 2, 1.0, 1123, 2, -0.5, 1126, 2, -0.5
*EQUATION
3
1717, 3, 1.0, 1123, 3, -0.5, 1126, 3, -0.5
*EQUATION
3
1718, 1, 1.0, 1125, 1, -0.5, 1126, 1, -0.5
*EQUATION
3
1718, 2, 1.0, 1125, 2, -0.5, 1126, 2, -0.5
*EQUATION
3
1718, 3, 1.0, 1125, 3, -0.5, 1126, 3, -0.5
*EQUATION
5
1721, 1, 1.0, 1123, 1, -0.25, 1130, 1, -0.25, 1132, 1, -0.25, 1126, 1, -0.25
*EQUATION
5
1721, 2, 1.0, 1123, 2, -0.25, 1130, 2, -0.25, 1132, 2, -0.25, 1126, 2, -0.25
*EQUATION
5
1721, 3, 1.0, 1123, 3, -0.25, 1130, 3, -0.25, 1132, 3, -0.25, 1126, 3, -0.25
*EQUATION
3
1724, 1, 1.0, 1126, 1, -0.5, 1132, 1, -0.5
*EQUATION
3
1724, 2, 1.0, 1126, 2, -0.5, 1132, 2, -0.5
*EQUATION
3
1724, 3, 1.0, 1126, 3, -0.5, 1132, 3, -0.5
*EQUATION
3
1725, 1, 1.0, 3, 1, -0.5, 1129, 1, -0.5
*EQUATION
3
1725, 2, 1.0, 3, 2, -0.5, 1129, 2, -0.5
*EQUATION
3
1725, 3, 1.0, 3, 3, -0.5, 1129, 3, -0.5
*EQUATION
5
1726, 1, 1.0, 1129, 1, -0.25, 3, 1, -0.25, 1132, 1, -0.25, 1130, 1, -0.25
*EQUATION
5
1726, 2, 1.0, 1129, 2, -0.25, 3, 2, -0.25, 1132, 2, -0.25, 1130, 2, -0.25
*EQUATION
5
1726, 3, 1.0, 1129, 3, -0.25, 3, 3, -0.25, 1132, 3, -0.25, 1130, 3, -0.25
*EQUATION
3
1727, 1, 1.0, 1130, 1, -0.5, 1132, 1, -0.5
*EQUATION
3
1727, 2, 1.0, 1130, 2, -0.5, 1132, 2, -0.5
*EQUATION
3
1727, 3, 1.0, 1130, 3, -0.5, 1132, 3, -0.5
*EQUATION
3
1728, 1, 1.0, 3, 1, -0.5, 1132, 1, -0.5
*EQUATION
3
1728, 2, 1.0, 3, 2, -0.5, 1132, 2, -0.5
*EQUATION
3
1728, 3, 1.0, 3, 3, -0.5, 1132, 3, -0.5
*EQUATION
3
1741, 1, 1.0, 10, 1, -0.5, 11, 1, -0.5
*EQUATION
3
1741, 2, 1.0, 10, 2, -0.5, 11, 2, -0.5
*EQUATION
3
1741, 3, 1.0, 10, 3, -0.5, 11, 3, -0.5
*EQUATION
3
1748, 1, 1.0, 13, 1, -0.5, 14, 1, -0.5
*EQUATION
3
1748, 2, 1.0, 13, 2, -0.5, 14, 2, -0.5
*EQUATION
3
1748, 3, 1.0, 13, 3, -0.5, 14, 3, -0.5
*EQUATION
5
1750, 1, 1.0, 13, 1, -0.25, 14, 1, -0.25, 15, 1, -0.25, 16, 1, -0.25
*EQUATION
5
1750, 2, 1.0, 13, 2, -0.25, 14, 2, -0.25, 15, 2, -0.25, 16, 2, -0.25
*EQUATION
5
1750, 3, 1.0, 13, 3, -0.25, 14, 3, -0.25, 15, 3, -0.25, 16, 3, -0.25
*EQUATION
3
1752, 1, 1.0, 15, 1, -0.5, 16, 1, -0.5
*EQUATION
3
1752, 2, 1.0, 15, 2, -0.5, 16, 2, -0.5
*EQUATION
3
1752, 3, 1.0, 15, 3, -0.5, 16, 3, -0.5
*EQUATION
3
1753, 1, 1.0, 10, 1, -0.5, 14, 1, -0.5
*EQUATION
3
1753, 2, 1.0, 10, 2, -0.5, 14, 2, -0.5
*EQUATION
3
1753, 3, 1.0, 10, 3, -0.5, 14, 3, -0.5
*EQUATION
5
1754, 1, 1.0, 10, 1, -0.25, 11, 1, -0.25, 15, 1, -0.25, 14, 1, -0.25
*EQUATION
5
1754, 2, 1.0, 10, 2, -0.25, 11, 2, -0.25, 15, 2, -0.25, 14, 2, -0.25
*EQUATION
5
1754, 3, 1.0, 10, 3, -0.25, 11, 3, -0.25, 15, 3, -0.25, 14, 3, -0.25
*EQUATION
3
1755, 1, 1.0, 14, 1, -0.5, 15, 1, -0.5
*EQUATION
3
1755, 2, 1.0, 14, 2, -0.5, 15, 2, -0.5
*EQUATION
3
1755, 3, 1.0, 14, 3, -0.5, 15, 3, -0.5
*EQUATION
3
1756, 1, 1.0, 11, 1, -0.5, 15, 1, -0.5
*EQUATION
3
1756, 2, 1.0, 11, 2, -0.5, 15, 2, -0.5
*EQUATION
3
1756, 3, 1.0, 11, 3, -0.5, 15, 3, -0.5
*EQUATION
3
1757, 1, 1.0, 1125, 1, -0.5, 1137, 1, -0.5
*EQUATION
3
1757, 2, 1.0, 1125, 2, -0.5, 1137, 2, -0.5
*EQUATION
3
1757, 3, 1.0, 1125, 3, -0.5, 1137, 3, -0.5
*EQUATION
5
1758, 1, 1.0, 1125, 1, -0.25, 1137, 1, -0.25, 1138, 1, -0.25, 1126, 1, -0.25
*EQUATION
5
1758, 2, 1.0, 1125, 2, -0.25, 1137, 2, -0.25, 1138, 2, -0.25, 1126, 2, -0.25
*EQUATION
5
1758, 3, 1.0, 1125, 3, -0.25, 1137, 3, -0.25, 1138, 3, -0.25, 1126, 3, -0.25
*EQUATION
3
1759, 1, 1.0, 1126, 1, -0.5, 1138, 1, -0.5
*EQUATION
3
1759, 2, 1.0, 1126, 2, -0.5, 1138, 2, -0.5
*EQUATION
3
1759, 3, 1.0, 1126, 3, -0.5, 1138, 3, -0.5
*EQUATION
3
1760, 1, 1.0, 1137, 1, -0.5, 1138, 1, -0.5
*EQUATION
3
1760, 2, 1.0, 1137, 2, -0.5, 1138, 2, -0.5
*EQUATION
3
1760, 3, 1.0, 1137, 3, -0.5, 1138, 3, -0.5
*EQUATION
5
1763, 1, 1.0, 1126, 1, -0.25, 1132, 1, -0.25, 1144, 1, -0.25, 1138, 1, -0.25
*EQUATION
5
1763, 2, 1.0, 1126, 2, -0.25, 1132, 2, -0.25, 1144, 2, -0.25, 1138, 2, -0.25
*EQUATION
5
1763, 3, 1.0, 1126, 3, -0.25, 1132, 3, -0.25, 1144, 3, -0.25, 1138, 3, -0.25
*EQUATION
3
1766, 1, 1.0, 1138, 1, -0.5, 1144, 1, -0.5
*EQUATION
3
1766, 2, 1.0, 1138, 2, -0.5, 1144, 2, -0.5
*EQUATION
3
1766, 3, 1.0, 1138, 3, -0.5, 1144, 3, -0.5
*EQUATION
3
1767, 1, 1.0, 3, 1, -0.5, 1143, 1, -0.5
*EQUATION
3
1767, 2, 1.0, 3, 2, -0.5, 1143, 2, -0.5
*EQUATION
3
1767, 3, 1.0, 3, 3, -0.5, 1143, 3, -0.5
*EQUATION
5
1768, 1, 1.0, 3, 1, -0.25, 1143, 1, -0.25, 1144, 1, -0.25, 1132, 1, -0.25
*EQUATION
5
1768, 2, 1.0, 3, 2, -0.25, 1143, 2, -0.25, 1144, 2, -0.25, 1132, 2, -0.25
*EQUATION
5
1768, 3, 1.0, 3, 3, -0.25, 1143, 3, -0.25, 1144, 3, -0.25, 1132, 3, -0.25
*EQUATION
3
1769, 1, 1.0, 1132, 1, -0.5, 1144, 1, -0.5
*EQUATION
3
1769, 2, 1.0, 1132, 2, -0.5, 1144, 2, -0.5
*EQUATION
3
1769, 3, 1.0, 1132, 3, -0.5, 1144, 3, -0.5
*EQUATION
3
1770, 1, 1.0, 1143, 1, -0.5, 1144, 1, -0.5
*EQUATION
3
1770, 2, 1.0, 1143, 2, -0.5, 1144, 2, -0.5
*EQUATION
3
1770, 3, 1.0, 1143, 3, -0.5, 1144, 3, -0.5
*EQUATION
3
1771, 1, 1.0, 1137, 1, -0.5, 1140, 1, -0.5
*EQUATION
3
1771, 2, 1.0, 1137, 2, -0.5, 1140, 2, -0.5
*EQUATION
3
1771, 3, 1.0, 1137, 3, -0.5, 1140, 3, -0.5
*EQUATION
5
1772, 1, 1.0, 1137, 1, -0.25, 1140, 1, -0.25, 1141, 1, -0.25, 1138, 1, -0.25
*EQUATION
5
1772, 2, 1.0, 1137, 2, -0.25, 1140, 2, -0.25, 1141, 2, -0.25, 1138, 2, -0.25
*EQUATION
5
1772, 3, 1.0, 1137, 3, -0.25, 1140, 3, -0.25, 1141, 3, -0.25, 1138, 3, -0.25
*EQUATION
3
1773, 1, 1.0, 1138, 1, -0.5, 1141, 1, -0.5
*EQUATION
3
1773, 2, 1.0, 1138, 2, -0.5, 1141, 2, -0.5
*EQUATION
3
1773, 3, 1.0, 1138, 3, -0.5, 1141, 3, -0.5
*EQUATION
3
1774, 1, 1.0, 1140, 1, -0.5, 1141, 1, -0.5
*EQUATION
3
1774, 2, 1.0, 1140, 2, -0.5, 1141, 2, -0.5
*EQUATION
3
1774, 3, 1.0, 1140, 3, -0.5, 1141, 3, -0.5
*EQUATION
5
1777, 1, 1.0, 1138, 1, -0.25, 1144, 1, -0.25, 1146, 1, -0.25, 1141, 1, -0.25
*EQUATION
5
1777, 2, 1.0, 1138, 2, -0.25, 1144, 2, -0.25, 1146, 2, -0.25, 1141, 2, -0.25
*EQUATION
5
1777, 3, 1.0, 1138, 3, -0.25, 1144, 3, -0.25, 1146, 3, -0.25, 1141, 3, -0.25
*EQUATION
3
1780, 1, 1.0, 1141, 1, -0.5, 1146, 1, -0.5
*EQUATION
3
1780, 2, 1.0, 1141, 2, -0.5, 1146, 2, -0.5
*EQUATION
3
1780, 3, 1.0, 1141, 3, -0.5, 1146, 3, -0.5
*EQUATION
3
1781, 1, 1.0, 25, 1, -0.5, 1143, 1, -0.5
*EQUATION
3
1781, 2, 1.0, 25, 2, -0.5, 1143, 2, -0.5
*EQUATION
3
1781, 3, 1.0, 25, 3, -0.5, 1143, 3, -0.5
*EQUATION
5
1782, 1, 1.0, 1143, 1, -0.25, 25, 1, -0.25, 1146, 1, -0.25, 1144, 1, -0.25
*EQUATION
5
1782, 2, 1.0, 1143, 2, -0.25, 25, 2, -0.25, 1146, 2, -0.25, 1144, 2, -0.25
*EQUATION
5
1782, 3, 1.0, 1143, 3, -0.25, 25, 3, -0.25, 1146, 3, -0.25, 1144, 3, -0.25
*EQUATION
3
1783, 1, 1.0, 1144, 1, -0.5, 1146, 1, -0.5
*EQUATION
3
1783, 2, 1.0, 1144, 2, -0.5, 1146, 2, -0.5
*EQUATION
3
1783, 3, 1.0, 1144, 3, -0.5, 1146, 3, -0.5
*EQUATION
3
1784, 1, 1.0, 25, 1, -0.5, 1146, 1, -0.5
*EQUATION
3
1784, 2, 1.0, 25, 2, -0.5, 1146, 2, -0.5
*EQUATION
3
1784, 3, 1.0, 25, 3, -0.5, 1146, 3, -0.5
*EQUATION
3
1793, 1, 1.0, 11, 1, -0.5, 29, 1, -0.5
*EQUATION
3
1793, 2, 1.0, 11, 2, -0.5, 29, 2, -0.5
*EQUATION
3
1793, 3, 1.0, 11, 3, -0.5, 29, 3, -0.5
*EQUATION
5
1799, 1, 1.0, 16, 1, -0.25, 15, 1, -0.25, 31, 1, -0.25, 32, 1, -0.25
*EQUATION
5
1799, 2, 1.0, 16, 2, -0.25, 15, 2, -0.25, 31, 2, -0.25, 32, 2, -0.25
*EQUATION
5
1799, 3, 1.0, 16, 3, -0.25, 15, 3, -0.25, 31, 3, -0.25, 32, 3, -0.25
*EQUATION
3
1801, 1, 1.0, 31, 1, -0.5, 32, 1, -0.5
*EQUATION
3
1801, 2, 1.0, 31, 2, -0.5, 32, 2, -0.5
*EQUATION
3
1801, 3, 1.0, 31, 3, -0.5, 32, 3, -0.5
*EQUATION
5
1802, 1, 1.0, 11, 1, -0.25, 29, 1, -0.25, 31, 1, -0.25, 15, 1, -0.25
*EQUATION
5
1802, 2, 1.0, 11, 2, -0.25, 29, 2, -0.25, 31, 2, -0.25, 15, 2, -0.25
*EQUATION
5
1802, 3, 1.0, 11, 3, -0.25, 29, 3, -0.25, 31, 3, -0.25, 15, 3, -0.25
*EQUATION
3
1803, 1, 1.0, 15, 1, -0.5, 31, 1, -0.5
*EQUATION
3
1803, 2, 1.0, 15, 2, -0.5, 31, 2, -0.5
*EQUATION
3
1803, 3, 1.0, 15, 3, -0.5, 31, 3, -0.5
*EQUATION
3
1804, 1, 1.0, 29, 1, -0.5, 31, 1, -0.5
*EQUATION
3
1804, 2, 1.0, 29, 2, -0.5, 31, 2, -0.5
*EQUATION
3
1804, 3, 1.0, 29, 3, -0.5, 31, 3, -0.5
*EQUATION
3
1806, 1, 1.0, 10, 1, -0.5, 101, 1, -0.5
*EQUATION
3
1806, 2, 1.0, 10, 2, -0.5, 101, 2, -0.5
*EQUATION
3
1806, 3, 1.0, 10, 3, -0.5, 101, 3, -0.5
*EQUATION
5
1808, 1, 1.0, 10, 1, -0.25, 101, 1, -0.25, 102, 1, -0.25, 11, 1, -0.25
*EQUATION
5
1808, 2, 1.0, 10, 2, -0.25, 101, 2, -0.25, 102, 2, -0.25, 11, 2, -0.25
*EQUATION
5
1808, 3, 1.0, 10, 3, -0.25, 101, 3, -0.25, 102, 3, -0.25, 11, 3, -0.25
*EQUATION
3
1810, 1, 1.0, 11, 1, -0.5, 102, 1, -0.5
*EQUATION
3
1810, 2, 1.0, 11, 2, -0.5, 102, 2, -0.5
*EQUATION
3
1810, 3, 1.0, 11, 3, -0.5, 102, 3, -0.5
*EQUATION
3
1811, 1, 1.0, 99, 1, -0.5, 101, 1, -0.5
*EQUATION
3
1811, 2, 1.0, 99, 2, -0.5, 101, 2, -0.5
*EQUATION
3
1811, 3, 1.0, 99, 3, -0.5, 101, 3, -0.5
*EQUATION
5
1812, 1, 1.0, 99, 1, -0.25, 100, 1, -0.25, 102, 1, -0.25, 101, 1, -0.25
*EQUATION
5
1812, 2, 1.0, 99, 2, -0.25, 100, 2, -0.25, 102, 2, -0.25, 101, 2, -0.25
*EQUATION
5
1812, 3, 1.0, 99, 3, -0.25, 100, 3, -0.25, 102, 3, -0.25, 101, 3, -0.25
*EQUATION
3
1813, 1, 1.0, 101, 1, -0.5, 102, 1, -0.5
*EQUATION
3
1813, 2, 1.0, 101, 2, -0.5, 102, 2, -0.5
*EQUATION
3
1813, 3, 1.0, 101, 3, -0.5, 102, 3, -0.5
*EQUATION
3
1814, 1, 1.0, 100, 1, -0.5, 102, 1, -0.5
*EQUATION
3
1814, 2, 1.0, 100, 2, -0.5, 102, 2, -0.5
*EQUATION
3
1814, 3, 1.0, 100, 3, -0.5, 102, 3, -0.5
*EQUATION
3
1815, 1, 1.0, 18, 1, -0.5, 22, 1, -0.5
*EQUATION
3
1815, 2, 1.0, 18, 2, -0.5, 22, 2, -0.5
*EQUATION
3
1815, 3, 1.0, 18, 3, -0.5, 22, 3, -0.5
*EQUATION
3
1816, 1, 1.0, 18, 1, -0.5, 19, 1, -0.5
*EQUATION
3
1816, 2, 1.0, 18, 2, -0.5, 19, 2, -0.5
*EQUATION
3
1816, 3, 1.0, 18, 3, -0.5, 19, 3, -0.5
*EQUATION
5
1817, 1, 1.0, 18, 1, -0.25, 19, 1, -0.25, 23, 1, -0.25, 22, 1, -0.25
*EQUATION
5
1817, 2, 1.0, 18, 2, -0.25, 19, 2, -0.25, 23, 2, -0.25, 22, 2, -0.25
*EQUATION
5
1817, 3, 1.0, 18, 3, -0.25, 19, 3, -0.25, 23, 3, -0.25, 22, 3, -0.25
*EQUATION
3
1818, 1, 1.0, 22, 1, -0.5, 23, 1, -0.5
*EQUATION
3
1818, 2, 1.0, 22, 2, -0.5, 23, 2, -0.5
*EQUATION
3
1818, 3, 1.0, 22, 3, -0.5, 23, 3, -0.5
*EQUATION
3
1819, 1, 1.0, 19, 1, -0.5, 23, 1, -0.5
*EQUATION
3
1819, 2, 1.0, 19, 2, -0.5, 23, 2, -0.5
*EQUATION
3
1819, 3, 1.0, 19, 3, -0.5, 23, 3, -0.5
*EQUATION
3
1820, 1, 1.0, 18, 1, -0.5, 105, 1, -0.5
*EQUATION
3
1820, 2, 1.0, 18, 2, -0.5, 105, 2, -0.5
*EQUATION
3
1820, 3, 1.0, 18, 3, -0.5, 105, 3, -0.5
*EQUATION
3
1822, 1, 1.0, 22, 1, -0.5, 107, 1, -0.5
*EQUATION
3
1822, 2, 1.0, 22, 2, -0.5, 107, 2, -0.5
*EQUATION
3
1822, 3, 1.0, 22, 3, -0.5, 107, 3, -0.5
*EQUATION
5
1823, 1, 1.0, 18, 1, -0.25, 105, 1, -0.25, 106, 1, -0.25, 19, 1, -0.25
*EQUATION
5
1823, 2, 1.0, 18, 2, -0.25, 105, 2, -0.25, 106, 2, -0.25, 19, 2, -0.25
*EQUATION
5
1823, 3, 1.0, 18, 3, -0.25, 105, 3, -0.25, 106, 3, -0.25, 19, 3, -0.25
*EQUATION
5
1825, 1, 1.0, 22, 1, -0.25, 107, 1, -0.25, 108, 1, -0.25, 23, 1, -0.25
*EQUATION
5
1825, 2, 1.0, 22, 2, -0.25, 107, 2, -0.25, 108, 2, -0.25, 23, 2, -0.25
*EQUATION
5
1825, 3, 1.0, 22, 3, -0.25, 107, 3, -0.25, 108, 3, -0.25, 23, 3, -0.25
*EQUATION
3
1826, 1, 1.0, 19, 1, -0.5, 106, 1, -0.5
*EQUATION
3
1826, 2, 1.0, 19, 2, -0.5, 106, 2, -0.5
*EQUATION
3
1826, 3, 1.0, 19, 3, -0.5, 106, 3, -0.5
*EQUATION
3
1828, 1, 1.0, 23, 1, -0.5, 108, 1, -0.5
*EQUATION
3
1828, 2, 1.0, 23, 2, -0.5, 108, 2, -0.5
*EQUATION
3
1828, 3, 1.0, 23, 3, -0.5, 108, 3, -0.5
*EQUATION
3
1829, 1, 1.0, 105, 1, -0.5, 107, 1, -0.5
*EQUATION
3
1829, 2, 1.0, 105, 2, -0.5, 107, 2, -0.5
*EQUATION
3
1829, 3, 1.0, 105, 3, -0.5, 107, 3, -0.5
*EQUATION
3
1830, 1, 1.0, 105, 1, -0.5, 106, 1, -0.5
*EQUATION
3
1830, 2, 1.0, 105, 2, -0.5, 106, 2, -0.5
*EQUATION
3
1830, 3, 1.0, 105, 3, -0.5, 106, 3, -0.5
*EQUATION
5
1831, 1, 1.0, 105, 1, -0.25, 106, 1, -0.25, 108, 1, -0.25, 107, 1, -0.25
*EQUATION
5
1831, 2, 1.0, 105, 2, -0.25, 106, 2, -0.25, 108, 2, -0.25, 107, 2, -0.25
*EQUATION
5
1831, 3, 1.0, 105, 3, -0.25, 106, 3, -0.25, 108, 3, -0.25, 107, 3, -0.25
*EQUATION
3
1832, 1, 1.0, 107, 1, -0.5, 108, 1, -0.5
*EQUATION
3
1832, 2, 1.0, 107, 2, -0.5, 108, 2, -0.5
*EQUATION
3
1832, 3, 1.0, 107, 3, -0.5, 108, 3, -0.5
*EQUATION
3
1833, 1, 1.0, 106, 1, -0.5, 108, 1, -0.5
*EQUATION
3
1833, 2, 1.0, 106, 2, -0.5, 108, 2, -0.5
*EQUATION
3
1833, 3, 1.0, 106, 3, -0.5, 108, 3, -0.5
*EQUATION
5
1835, 1, 1.0, 11, 1, -0.25, 102, 1, -0.25, 111, 1, -0.25, 29, 1, -0.25
*EQUATION
5
1835, 2, 1.0, 11, 2, -0.25, 102, 2, -0.25, 111, 2, -0.25, 29, 2, -0.25
*EQUATION
5
1835, 3, 1.0, 11, 3, -0.25, 102, 3, -0.25, 111, 3, -0.25, 29, 3, -0.25
*EQUATION
3
1837, 1, 1.0, 29, 1, -0.5, 111, 1, -0.5
*EQUATION
3
1837, 2, 1.0, 29, 2, -0.5, 111, 2, -0.5
*EQUATION
3
1837, 3, 1.0, 29, 3, -0.5, 111, 3, -0.5
*EQUATION
5
1838, 1, 1.0, 100, 1, -0.25, 110, 1, -0.25, 111, 1, -0.25, 102, 1, -0.25
*EQUATION
5
1838, 2, 1.0, 100, 2, -0.25, 110, 2, -0.25, 111, 2, -0.25, 102, 2, -0.25
*EQUATION
5
1838, 3, 1.0, 100, 3, -0.25, 110, 3, -0.25, 111, 3, -0.25, 102, 3, -0.25
*EQUATION
3
1839, 1, 1.0, 102, 1, -0.5, 111, 1, -0.5
*EQUATION
3
1839, 2, 1.0, 102, 2, -0.5, 111, 2, -0.5
*EQUATION
3
1839, 3, 1.0, 102, 3, -0.5, 111, 3, -0.5
*EQUATION
3
1840, 1, 1.0, 110, 1, -0.5, 111, 1, -0.5
*EQUATION
3
1840, 2, 1.0, 110, 2, -0.5, 111, 2, -0.5
*EQUATION
3
1840, 3, 1.0, 110, 3, -0.5, 111, 3, -0.5
*EQUATION
3
1841, 1, 1.0, 19, 1, -0.5, 33, 1, -0.5
*EQUATION
3
1841, 2, 1.0, 19, 2, -0.5, 33, 2, -0.5
*EQUATION
3
1841, 3, 1.0, 19, 3, -0.5, 33, 3, -0.5
*EQUATION
5
1842, 1, 1.0, 19, 1, -0.25, 33, 1, -0.25, 35, 1, -0.25, 23, 1, -0.25
*EQUATION
5
1842, 2, 1.0, 19, 2, -0.25, 33, 2, -0.25, 35, 2, -0.25, 23, 2, -0.25
*EQUATION
5
1842, 3, 1.0, 19, 3, -0.25, 33, 3, -0.25, 35, 3, -0.25, 23, 3, -0.25
*EQUATION
3
1843, 1, 1.0, 23, 1, -0.5, 35, 1, -0.5
*EQUATION
3
1843, 2, 1.0, 23, 2, -0.5, 35, 2, -0.5
*EQUATION
3
1843, 3, 1.0, 23, 3, -0.5, 35, 3, -0.5
*EQUATION
3
1844, 1, 1.0, 33, 1, -0.5, 35, 1, -0.5
*EQUATION
3
1844, 2, 1.0, 33, 2, -0.5, 35, 2, -0.5
*EQUATION
3
1844, 3, 1.0, 33, 3, -0.5, 35, 3, -0.5
*EQUATION
5
1845, 1, 1.0, 19, 1, -0.25, 106, 1, -0.25, 113, 1, -0.25, 33, 1, -0.25
*EQUATION
5
1845, 2, 1.0, 19, 2, -0.25, 106, 2, -0.25, 113, 2, -0.25, 33, 2, -0.25
*EQUATION
5
1845, 3, 1.0, 19, 3, -0.25, 106, 3, -0.25, 113, 3, -0.25, 33, 3, -0.25
*EQUATION
5
1847, 1, 1.0, 23, 1, -0.25, 108, 1, -0.25, 114, 1, -0.25, 35, 1, -0.25
*EQUATION
5
1847, 2, 1.0, 23, 2, -0.25, 108, 2, -0.25, 114, 2, -0.25, 35, 2, -0.25
*EQUATION
5
1847, 3, 1.0, 23, 3, -0.25, 108, 3, -0.25, 114, 3, -0.25, 35, 3, -0.25
*EQUATION
3
1848, 1, 1.0, 33, 1, -0.5, 113, 1, -0.5
*EQUATION
3
1848, 2, 1.0, 33, 2, -0.5, 113, 2, -0.5
*EQUATION
3
1848, 3, 1.0, 33, 3, -0.5, 113, 3, -0.5
*EQUATION
3
1850, 1, 1.0, 35, 1, -0.5, 114, 1, -0.5
*EQUATION
3
1850, 2, 1.0, 35, 2, -0.5, 114, 2, -0.5
*EQUATION
3
1850, 3, 1.0, 35, 3, -0.5, 114, 3, -0.5
*EQUATION
3
1851, 1, 1.0, 106, 1, -0.5, 113, 1, -0.5
*EQUATION
3
1851, 2, 1.0, 106, 2, -0.5, 113, 2, -0.5
*EQUATION
3
1851, 3, 1.0, 106, 3, -0.5, 113, 3, -0.5
*EQUATION
5
1852, 1, 1.0, 106, 1, -0.25, 113, 1, -0.25, 114, 1, -0.25, 108, 1, -0.25
*EQUATION
5
1852, 2, 1.0, 106, 2, -0.25, 113, 2, -0.25, 114, 2, -0.25, 108, 2, -0.25
*EQUATION
5
1852, 3, 1.0, 106, 3, -0.25, 113, 3, -0.25, 114, 3, -0.25, 108, 3, -0.25
*EQUATION
3
1853, 1, 1.0, 108, 1, -0.5, 114, 1, -0.5
*EQUATION
3
1853, 2, 1.0, 108, 2, -0.5, 114, 2, -0.5
*EQUATION
3
1853, 3, 1.0, 108, 3, -0.5, 114, 3, -0.5
*EQUATION
3
1854, 1, 1.0, 113, 1, -0.5, 114, 1, -0.5
*EQUATION
3
1854, 2, 1.0, 113, 2, -0.5, 114, 2, -0.5
*EQUATION
3
1854, 3, 1.0, 113, 3, -0.5, 114, 3, -0.5
*EQUATION
3
1857, 1, 1.0, 99, 1, -0.5, 147, 1, -0.5
*EQUATION
3
1857, 2, 1.0, 99, 2, -0.5, 147, 2, -0.5
*EQUATION
3
1857, 3, 1.0, 99, 3, -0.5, 147, 3, -0.5
*EQUATION
5
1860, 1, 1.0, 99, 1, -0.25, 147, 1, -0.25, 148, 1, -0.25, 100, 1, -0.25
*EQUATION
5
1860, 2, 1.0, 99, 2, -0.25, 147, 2, -0.25, 148, 2, -0.25, 100, 2, -0.25
*EQUATION
5
1860, 3, 1.0, 99, 3, -0.25, 147, 3, -0.25, 148, 3, -0.25, 100, 3, -0.25
*EQUATION
3
1863, 1, 1.0, 100, 1, -0.5, 148, 1, -0.5
*EQUATION
3
1863, 2, 1.0, 100, 2, -0.5, 148, 2, -0.5
*EQUATION
3
1863, 3, 1.0, 100, 3, -0.5, 148, 3, -0.5
*EQUATION
3
1867, 1, 1.0, 147, 1, -0.5, 148, 1, -0.5
*EQUATION
3
1867, 2, 1.0, 147, 2, -0.5, 148, 2, -0.5
*EQUATION
3
1867, 3, 1.0, 147, 3, -0.5, 148, 3, -0.5
*EQUATION
5
1871, 1, 1.0, 100, 1, -0.25, 148, 1, -0.25, 158, 1, -0.25, 110, 1, -0.25
*EQUATION
5
1871, 2, 1.0, 100, 2, -0.25, 148, 2, -0.25, 158, 2, -0.25, 110, 2, -0.25
*EQUATION
5
1871, 3, 1.0, 100, 3, -0.25, 148, 3, -0.25, 158, 3, -0.25, 110, 3, -0.25
*EQUATION
3
1874, 1, 1.0, 110, 1, -0.5, 158, 1, -0.5
*EQUATION
3
1874, 2, 1.0, 110, 2, -0.5, 158, 2, -0.5
*EQUATION
3
1874, 3, 1.0, 110, 3, -0.5, 158, 3, -0.5
*EQUATION
3
1877, 1, 1.0, 148, 1, -0.5, 158, 1, -0.5
*EQUATION
3
1877, 2, 1.0, 148, 2, -0.5, 158, 2, -0.5
*EQUATION
3
1877, 3, 1.0, 148, 3, -0.5, 158, 3, -0.5
*EQUATION
3
1881, 1, 1.0, 147, 1, -0.5, 195, 1, -0.5
*EQUATION
3
1881, 2, 1.0, 147, 2, -0.5, 195, 2, -0.5
*EQUATION
3
1881, 3, 1.0, 147, 3, -0.5, 195, 3, -0.5
*EQUATION
5
1884, 1, 1.0, 147, 1, -0.25, 195, 1, -0.25, 196, 1, -0.25, 148, 1, -0.25
*EQUATION
5
1884, 2, 1.0, 147, 2, -0.25, 195, 2, -0.25, 196, 2, -0.25, 148, 2, -0.25
*EQUATION
5
1884, 3, 1.0, 147, 3, -0.25, 195, 3, -0.25, 196, 3, -0.25, 148, 3, -0.25
*EQUATION
3
1887, 1, 1.0, 148, 1, -0.5, 196, 1, -0.5
*EQUATION
3
1887, 2, 1.0, 148, 2, -0.5, 196, 2, -0.5
*EQUATION
3
1887, 3, 1.0, 148, 3, -0.5, 196, 3, -0.5
*EQUATION
3
1891, 1, 1.0, 195, 1, -0.5, 196, 1, -0.5
*EQUATION
3
1891, 2, 1.0, 195, 2, -0.5, 196, 2, -0.5
*EQUATION
3
1891, 3, 1.0, 195, 3, -0.5, 196, 3, -0.5
*EQUATION
5
1895, 1, 1.0, 148, 1, -0.25, 196, 1, -0.25, 206, 1, -0.25, 158, 1, -0.25
*EQUATION
5
1895, 2, 1.0, 148, 2, -0.25, 196, 2, -0.25, 206, 2, -0.25, 158, 2, -0.25
*EQUATION
5
1895, 3, 1.0, 148, 3, -0.25, 196, 3, -0.25, 206, 3, -0.25, 158, 3, -0.25
*EQUATION
3
1898, 1, 1.0, 158, 1, -0.5, 206, 1, -0.5
*EQUATION
3
1898, 2, 1.0, 158, 2, -0.5, 206, 2, -0.5
*EQUATION
3
1898, 3, 1.0, 158, 3, -0.5, 206, 3, -0.5
*EQUATION
3
1901, 1, 1.0, 196, 1, -0.5, 206, 1, -0.5
*EQUATION
3
1901, 2, 1.0, 196, 2, -0.5, 206, 2, -0.5
*EQUATION
3
1901, 3, 1.0, 196, 3, -0.5, 206, 3, -0.5
*EQUATION
3
1905, 1, 1.0, 195, 1, -0.5, 243, 1, -0.5
*EQUATION
3
1905, 2, 1.0, 195, 2, -0.5, 243, 2, -0.5
*EQUATION
3
1905, 3, 1.0, 195, 3, -0.5, 243, 3, -0.5
*EQUATION
5
1908, 1, 1.0, 195, 1, -0.25, 243, 1, -0.25, 244, 1, -0.25, 196, 1, -0.25
*EQUATION
5
1908, 2, 1.0, 195, 2, -0.25, 243, 2, -0.25, 244, 2, -0.25, 196, 2, -0.25
*EQUATION
5
1908, 3, 1.0, 195, 3, -0.25, 243, 3, -0.25, 244, 3, -0.25, 196, 3, -0.25
*EQUATION
3
1911, 1, 1.0, 196, 1, -0.5, 244, 1, -0.5
*EQUATION
3
1911, 2, 1.0, 196, 2, -0.5, 244, 2, -0.5
*EQUATION
3
1911, 3, 1.0, 196, 3, -0.5, 244, 3, -0.5
*EQUATION
3
1915, 1, 1.0, 243, 1, -0.5, 244, 1, -0.5
*EQUATION
3
1915, 2, 1.0, 243, 2, -0.5, 244, 2, -0.5
*EQUATION
3
1915, 3, 1.0, 243, 3, -0.5, 244, 3, -0.5
*EQUATION
5
1919, 1, 1.0, 196, 1, -0.25, 244, 1, -0.25, 254, 1, -0.25, 206, 1, -0.25
*EQUATION
5
1919, 2, 1.0, 196, 2, -0.25, 244, 2, -0.25, 254, 2, -0.25, 206, 2, -0.25
*EQUATION
5
1919, 3, 1.0, 196, 3, -0.25, 244, 3, -0.25, 254, 3, -0.25, 206, 3, -0.25
*EQUATION
3
1922, 1, 1.0, 206, 1, -0.5, 254, 1, -0.5
*EQUATION
3
1922, 2, 1.0, 206, 2, -0.5, 254, 2, -0.5
*EQUATION
3
1922, 3, 1.0, 206, 3, -0.5, 254, 3, -0.5
*EQUATION
3
1925, 1, 1.0, 244, 1, -0.5, 254, 1, -0.5
*EQUATION
3
1925, 2, 1.0, 244, 2, -0.5, 254, 2, -0.5
*EQUATION
3
1925, 3, 1.0, 244, 3, -0.5, 254, 3, -0.5
*EQUATION
3
1929, 1, 1.0, 243, 1, -0.5, 291, 1, -0.5
*EQUATION
3
1929, 2, 1.0, 243, 2, -0.5, 291, 2, -0.5
*EQUATION
3
1929, 3, 1.0, 243, 3, -0.5, 291, 3, -0.5
*EQUATION
5
1932, 1, 1.0, 243, 1, -0.25, 291, 1, -0.25, 292, 1, -0.25, 244, 1, -0.25
*EQUATION
5
1932, 2, 1.0, 243, 2, -0.25, 291, 2, -0.25, 292, 2, -0.25, 244, 2, -0.25
*EQUATION
5
1932, 3, 1.0, 243, 3, -0.25, 291, 3, -0.25, 292, 3, -0.25, 244, 3, -0.25
*EQUATION
3
1935, 1, 1.0, 244, 1, -0.5, 292, 1, -0.5
*EQUATION
3
1935, 2, 1.0, 244, 2, -0.5, 292, 2, -0.5
*EQUATION
3
1935, 3, 1.0, 244, 3, -0.5, 292, 3, -0.5
*EQUATION
3
1939, 1, 1.0, 291, 1, -0.5, 292, 1, -0.5
*EQUATION
3
1939, 2, 1.0, 291, 2, -0.5, 292, 2, -0.5
*EQUATION
3
1939, 3, 1.0, 291, 3, -0.5, 292, 3, -0.5
*EQUATION
3
1941, 1, 1.0, 249, 1, -0.5, 251, 1, -0.5
*EQUATION
3
1941, 2, 1.0, 249, 2, -0.5, 251, 2, -0.5
*EQUATION
3
1941, 3, 1.0, 249, 3, -0.5, 251, 3, -0.5
*EQUATION
3
1942, 1, 1.0, 249, 1, -0.5, 250, 1, -0.5
*EQUATION
3
1942, 2, 1.0, 249, 2, -0.5, 250, 2, -0.5
*EQUATION
3
1942, 3, 1.0, 249, 3, -0.5, 250, 3, -0.5
*EQUATION
5
1943, 1, 1.0, 249, 1, -0.25, 250, 1, -0.25, 252, 1, -0.25, 251, 1, -0.25
*EQUATION
5
1943, 2, 1.0, 249, 2, -0.25, 250, 2, -0.25, 252, 2, -0.25, 251, 2, -0.25
*EQUATION
5
1943, 3, 1.0, 249, 3, -0.25, 250, 3, -0.25, 252, 3, -0.25, 251, 3, -0.25
*EQUATION
3
1944, 1, 1.0, 251, 1, -0.5, 252, 1, -0.5
*EQUATION
3
1944, 2, 1.0, 251, 2, -0.5, 252, 2, -0.5
*EQUATION
3
1944, 3, 1.0, 251, 3, -0.5, 252, 3, -0.5
*EQUATION
3
1945, 1, 1.0, 250, 1, -0.5, 252, 1, -0.5
*EQUATION
3
1945, 2, 1.0, 250, 2, -0.5, 252, 2, -0.5
*EQUATION
3
1945, 3, 1.0, 250, 3, -0.5, 252, 3, -0.5
*EQUATION
3
1946, 1, 1.0, 249, 1, -0.5, 297, 1, -0.5
*EQUATION
3
1946, 2, 1.0, 249, 2, -0.5, 297, 2, -0.5
*EQUATION
3
1946, 3, 1.0, 249, 3, -0.5, 297, 3, -0.5
*EQUATION
3
1948, 1, 1.0, 251, 1, -0.5, 299, 1, -0.5
*EQUATION
3
1948, 2, 1.0, 251, 2, -0.5, 299, 2, -0.5
*EQUATION
3
1948, 3, 1.0, 251, 3, -0.5, 299, 3, -0.5
*EQUATION
5
1949, 1, 1.0, 249, 1, -0.25, 297, 1, -0.25, 298, 1, -0.25, 250, 1, -0.25
*EQUATION
5
1949, 2, 1.0, 249, 2, -0.25, 297, 2, -0.25, 298, 2, -0.25, 250, 2, -0.25
*EQUATION
5
1949, 3, 1.0, 249, 3, -0.25, 297, 3, -0.25, 298, 3, -0.25, 250, 3, -0.25
*EQUATION
5
1951, 1, 1.0, 251, 1, -0.25, 299, 1, -0.25, 300, 1, -0.25, 252, 1, -0.25
*EQUATION
5
1951, 2, 1.0, 251, 2, -0.25, 299, 2, -0.25, 300, 2, -0.25, 252, 2, -0.25
*EQUATION
5
1951, 3, 1.0, 251, 3, -0.25, 299, 3, -0.25, 300, 3, -0.25, 252, 3, -0.25
*EQUATION
3
1952, 1, 1.0, 250, 1, -0.5, 298, 1, -0.5
*EQUATION
3
1952, 2, 1.0, 250, 2, -0.5, 298, 2, -0.5
*EQUATION
3
1952, 3, 1.0, 250, 3, -0.5, 298, 3, -0.5
*EQUATION
3
1954, 1, 1.0, 252, 1, -0.5, 300, 1, -0.5
*EQUATION
3
1954, 2, 1.0, 252, 2, -0.5, 300, 2, -0.5
*EQUATION
3
1954, 3, 1.0, 252, 3, -0.5, 300, 3, -0.5
*EQUATION
3
1956, 1, 1.0, 297, 1, -0.5, 298, 1, -0.5
*EQUATION
3
1956, 2, 1.0, 297, 2, -0.5, 298, 2, -0.5
*EQUATION
3
1956, 3, 1.0, 297, 3, -0.5, 298, 3, -0.5
*EQUATION
3
1958, 1, 1.0, 299, 1, -0.5, 300, 1, -0.5
*EQUATION
3
1958, 2, 1.0, 299, 2, -0.5, 300, 2, -0.5
*EQUATION
3
1958, 3, 1.0, 299, 3, -0.5, 300, 3, -0.5
*EQUATION
5
1962, 1, 1.0, 244, 1, -0.25, 292, 1, -0.25, 302, 1, -0.25, 254, 1, -0.25
*EQUATION
5
1962, 2, 1.0, 244, 2, -0.25, 292, 2, -0.25, 302, 2, -0.25, 254, 2, -0.25
*EQUATION
5
1962, 3, 1.0, 244, 3, -0.25, 292, 3, -0.25, 302, 3, -0.25, 254, 3, -0.25
*EQUATION
3
1965, 1, 1.0, 254, 1, -0.5, 302, 1, -0.5
*EQUATION
3
1965, 2, 1.0, 254, 2, -0.5, 302, 2, -0.5
*EQUATION
3
1965, 3, 1.0, 254, 3, -0.5, 302, 3, -0.5
*EQUATION
3
1968, 1, 1.0, 292, 1, -0.5, 302, 1, -0.5
*EQUATION
3
1968, 2, 1.0, 292, 2, -0.5, 302, 2, -0.5
*EQUATION
3
1968, 3, 1.0, 292, 3, -0.5, 302, 3, -0.5
*EQUATION
3
1970, 1, 1.0, 250, 1, -0.5, 257, 1, -0.5
*EQUATION
3
1970, 2, 1.0, 250, 2, -0.5, 257, 2, -0.5
*EQUATION
3
1970, 3, 1.0, 250, 3, -0.5, 257, 3, -0.5
*EQUATION
5
1971, 1, 1.0, 250, 1, -0.25, 257, 1, -0.25, 258, 1, -0.25, 252, 1, -0.25
*EQUATION
5
1971, 2, 1.0, 250, 2, -0.25, 257, 2, -0.25, 258, 2, -0.25, 252, 2, -0.25
*EQUATION
5
1971, 3, 1.0, 250, 3, -0.25, 257, 3, -0.25, 258, 3, -0.25, 252, 3, -0.25
*EQUATION
3
1972, 1, 1.0, 252, 1, -0.5, 258, 1, -0.5
*EQUATION
3
1972, 2, 1.0, 252, 2, -0.5, 258, 2, -0.5
*EQUATION
3
1972, 3, 1.0, 252, 3, -0.5, 258, 3, -0.5
*EQUATION
3
1973, 1, 1.0, 257, 1, -0.5, 258, 1, -0.5
*EQUATION
3
1973, 2, 1.0, 257, 2, -0.5, 258, 2, -0.5
*EQUATION
3
1973, 3, 1.0, 257, 3, -0.5, 258, 3, -0.5
*EQUATION
5
1974, 1, 1.0, 250, 1, -0.25, 298, 1, -0.25, 305, 1, -0.25, 257, 1, -0.25
*EQUATION
5
1974, 2, 1.0, 250, 2, -0.25, 298, 2, -0.25, 305, 2, -0.25, 257, 2, -0.25
*EQUATION
5
1974, 3, 1.0, 250, 3, -0.25, 298, 3, -0.25, 305, 3, -0.25, 257, 3, -0.25
*EQUATION
5
1976, 1, 1.0, 252, 1, -0.25, 300, 1, -0.25, 306, 1, -0.25, 258, 1, -0.25
*EQUATION
5
1976, 2, 1.0, 252, 2, -0.25, 300, 2, -0.25, 306, 2, -0.25, 258, 2, -0.25
*EQUATION
5
1976, 3, 1.0, 252, 3, -0.25, 300, 3, -0.25, 306, 3, -0.25, 258, 3, -0.25
*EQUATION
3
1977, 1, 1.0, 257, 1, -0.5, 305, 1, -0.5
*EQUATION
3
1977, 2, 1.0, 257, 2, -0.5, 305, 2, -0.5
*EQUATION
3
1977, 3, 1.0, 257, 3, -0.5, 305, 3, -0.5
*EQUATION
3
1979, 1, 1.0, 258, 1, -0.5, 306, 1, -0.5
*EQUATION
3
1979, 2, 1.0, 258, 2, -0.5, 306, 2, -0.5
*EQUATION
3
1979, 3, 1.0, 258, 3, -0.5, 306, 3, -0.5
*EQUATION
3
1980, 1, 1.0, 298, 1, -0.5, 305, 1, -0.5
*EQUATION
3
1980, 2, 1.0, 298, 2, -0.5, 305, 2, -0.5
*EQUATION
3
1980, 3, 1.0, 298, 3, -0.5, 305, 3, -0.5
*EQUATION
3
1982, 1, 1.0, 300, 1, -0.5, 306, 1, -0.5
*EQUATION
3
1982, 2, 1.0, 300, 2, -0.5, 306, 2, -0.5
*EQUATION
3
1982, 3, 1.0, 300, 3, -0.5, 306, 3, -0.5
*EQUATION
3
1986, 1, 1.0, 291, 1, -0.5, 339, 1, -0.5
*EQUATION
3
1986, 2, 1.0, 291, 2, -0.5, 339, 2, -0.5
*EQUATION
3
1986, 3, 1.0, 291, 3, -0.5, 339, 3, -0.5
*EQUATION
5
1989, 1, 1.0, 291, 1, -0.25, 339, 1, -0.25, 340, 1, -0.25, 292, 1, -0.25
*EQUATION
5
1989, 2, 1.0, 291, 2, -0.25, 339, 2, -0.25, 340, 2, -0.25, 292, 2, -0.25
*EQUATION
5
1989, 3, 1.0, 291, 3, -0.25, 339, 3, -0.25, 340, 3, -0.25, 292, 3, -0.25
*EQUATION
3
1992, 1, 1.0, 292, 1, -0.5, 340, 1, -0.5
*EQUATION
3
1992, 2, 1.0, 292, 2, -0.5, 340, 2, -0.5
*EQUATION
3
1992, 3, 1.0, 292, 3, -0.5, 340, 3, -0.5
*EQUATION
3
1993, 1, 1.0, 297, 1, -0.5, 345, 1, -0.5
*EQUATION
3
1993, 2, 1.0, 297, 2, -0.5, 345, 2, -0.5
*EQUATION
3
1993, 3, 1.0, 297, 3, -0.5, 345, 3, -0.5
*EQUATION
3
1995, 1, 1.0, 299, 1, -0.5, 347, 1, -0.5
*EQUATION
3
1995, 2, 1.0, 299, 2, -0.5, 347, 2, -0.5
*EQUATION
3
1995, 3, 1.0, 299, 3, -0.5, 347, 3, -0.5
*EQUATION
5
1996, 1, 1.0, 297, 1, -0.25, 345, 1, -0.25, 346, 1, -0.25, 298, 1, -0.25
*EQUATION
5
1996, 2, 1.0, 297, 2, -0.25, 345, 2, -0.25, 346, 2, -0.25, 298, 2, -0.25
*EQUATION
5
1996, 3, 1.0, 297, 3, -0.25, 345, 3, -0.25, 346, 3, -0.25, 298, 3, -0.25
*EQUATION
5
1998, 1, 1.0, 299, 1, -0.25, 347, 1, -0.25, 348, 1, -0.25, 300, 1, -0.25
*EQUATION
5
1998, 2, 1.0, 299, 2, -0.25, 347, 2, -0.25, 348, 2, -0.25, 300, 2, -0.25
*EQUATION
5
1998, 3, 1.0, 299, 3, -0.25, 347, 3, -0.25, 348, 3, -0.25, 300, 3, -0.25
*EQUATION
3
1999, 1, 1.0, 298, 1, -0.5, 346, 1, -0.5
*EQUATION
3
1999, 2, 1.0, 298, 2, -0.5, 346, 2, -0.5
*EQUATION
3
1999, 3, 1.0, 298, 3, -0.5, 346, 3, -0.5
*EQUATION
3
2001, 1, 1.0, 300, 1, -0.5, 348, 1, -0.5
*EQUATION
3
2001, 2, 1.0, 300, 2, -0.5, 348, 2, -0.5
*EQUATION
3
2001, 3, 1.0, 300, 3, -0.5, 348, 3, -0.5
*EQUATION
3
2003, 1, 1.0, 345, 1, -0.5, 346, 1, -0.5
*EQUATION
3
2003, 2, 1.0, 345, 2, -0.5, 346, 2, -0.5
*EQUATION
3
2003, 3, 1.0, 345, 3, -0.5, 346, 3, -0.5
*EQUATION
3
2005, 1, 1.0, 347, 1, -0.5, 348, 1, -0.5
*EQUATION
3
2005, 2, 1.0, 347, 2, -0.5, 348, 2, -0.5
*EQUATION
3
2005, 3, 1.0, 347, 3, -0.5, 348, 3, -0.5
*EQUATION
5
2009, 1, 1.0, 292, 1, -0.25, 340, 1, -0.25, 350, 1, -0.25, 302, 1, -0.25
*EQUATION
5
2009, 2, 1.0, 292, 2, -0.25, 340, 2, -0.25, 350, 2, -0.25, 302, 2, -0.25
*EQUATION
5
2009, 3, 1.0, 292, 3, -0.25, 340, 3, -0.25, 350, 3, -0.25, 302, 3, -0.25
*EQUATION
3
2012, 1, 1.0, 302, 1, -0.5, 350, 1, -0.5
*EQUATION
3
2012, 2, 1.0, 302, 2, -0.5, 350, 2, -0.5
*EQUATION
3
2012, 3, 1.0, 302, 3, -0.5, 350, 3, -0.5
*EQUATION
5
2013, 1, 1.0, 298, 1, -0.25, 346, 1, -0.25, 353, 1, -0.25, 305, 1, -0.25
*EQUATION
5
2013, 2, 1.0, 298, 2, -0.25, 346, 2, -0.25, 353, 2, -0.25, 305, 2, -0.25
*EQUATION
5
2013, 3, 1.0, 298, 3, -0.25, 346, 3, -0.25, 353, 3, -0.25, 305, 3, -0.25
*EQUATION
5
2015, 1, 1.0, 300, 1, -0.25, 348, 1, -0.25, 354, 1, -0.25, 306, 1, -0.25
*EQUATION
5
2015, 2, 1.0, 300, 2, -0.25, 348, 2, -0.25, 354, 2, -0.25, 306, 2, -0.25
*EQUATION
5
2015, 3, 1.0, 300, 3, -0.25, 348, 3, -0.25, 354, 3, -0.25, 306, 3, -0.25
*EQUATION
3
2016, 1, 1.0, 305, 1, -0.5, 353, 1, -0.5
*EQUATION
3
2016, 2, 1.0, 305, 2, -0.5, 353, 2, -0.5
*EQUATION
3
2016, 3, 1.0, 305, 3, -0.5, 353, 3, -0.5
*EQUATION
3
2018, 1, 1.0, 306, 1, -0.5, 354, 1, -0.5
*EQUATION
3
2018, 2, 1.0, 306, 2, -0.5, 354, 2, -0.5
*EQUATION
3
2018, 3, 1.0, 306, 3, -0.5, 354, 3, -0.5
*EQUATION
3
2019, 1, 1.0, 346, 1, -0.5, 353, 1, -0.5
*EQUATION
3
2019, 2, 1.0, 346, 2, -0.5, 353, 2, -0.5
*EQUATION
3
2019, 3, 1.0, 346, 3, -0.5, 353, 3, -0.5
*EQUATION
3
2021, 1, 1.0, 348, 1, -0.5, 354, 1, -0.5
*EQUATION
3
2021, 2, 1.0, 348, 2, -0.5, 354, 2, -0.5
*EQUATION
3
2021, 3, 1.0, 348, 3, -0.5, 354, 3, -0.5
*EQUATION
3
2023, 1, 1.0, 339, 1, -0.5, 341, 1, -0.5
*EQUATION
3
2023, 2, 1.0, 339, 2, -0.5, 341, 2, -0.5
*EQUATION
3
2023, 3, 1.0, 339, 3, -0.5, 341, 3, -0.5
*EQUATION
5
2024, 1, 1.0, 339, 1, -0.25, 340, 1, -0.25, 342, 1, -0.25, 341, 1, -0.25
*EQUATION
5
2024, 2, 1.0, 339, 2, -0.25, 340, 2, -0.25, 342, 2, -0.25, 341, 2, -0.25
*EQUATION
5
2024, 3, 1.0, 339, 3, -0.25, 340, 3, -0.25, 342, 3, -0.25, 341, 3, -0.25
*EQUATION
3
2025, 1, 1.0, 341, 1, -0.5, 342, 1, -0.5
*EQUATION
3
2025, 2, 1.0, 341, 2, -0.5, 342, 2, -0.5
*EQUATION
3
2025, 3, 1.0, 341, 3, -0.5, 342, 3, -0.5
*EQUATION
3
2026, 1, 1.0, 340, 1, -0.5, 342, 1, -0.5
*EQUATION
3
2026, 2, 1.0, 340, 2, -0.5, 342, 2, -0.5
*EQUATION
3
2026, 3, 1.0, 340, 3, -0.5, 342, 3, -0.5
*EQUATION
3
2028, 1, 1.0, 341, 1, -0.5, 389, 1, -0.5
*EQUATION
3
2028, 2, 1.0, 341, 2, -0.5, 389, 2, -0.5
*EQUATION
3
2028, 3, 1.0, 341, 3, -0.5, 389, 3, -0.5
*EQUATION
5
2030, 1, 1.0, 341, 1, -0.25, 389, 1, -0.25, 390, 1, -0.25, 342, 1, -0.25
*EQUATION
5
2030, 2, 1.0, 341, 2, -0.25, 389, 2, -0.25, 390, 2, -0.25, 342, 2, -0.25
*EQUATION
5
2030, 3, 1.0, 341, 3, -0.25, 389, 3, -0.25, 390, 3, -0.25, 342, 3, -0.25
*EQUATION
3
2032, 1, 1.0, 342, 1, -0.5, 390, 1, -0.5
*EQUATION
3
2032, 2, 1.0, 342, 2, -0.5, 390, 2, -0.5
*EQUATION
3
2032, 3, 1.0, 342, 3, -0.5, 390, 3, -0.5
*EQUATION
3
2035, 1, 1.0, 389, 1, -0.5, 390, 1, -0.5
*EQUATION
3
2035, 2, 1.0, 389, 2, -0.5, 390, 2, -0.5
*EQUATION
3
2035, 3, 1.0, 389, 3, -0.5, 390, 3, -0.5
*EQUATION
3
2037, 1, 1.0, 345, 1, -0.5, 393, 1, -0.5
*EQUATION
3
2037, 2, 1.0, 345, 2, -0.5, 393, 2, -0.5
*EQUATION
3
2037, 3, 1.0, 345, 3, -0.5, 393, 3, -0.5
*EQUATION
3
2039, 1, 1.0, 347, 1, -0.5, 395, 1, -0.5
*EQUATION
3
2039, 2, 1.0, 347, 2, -0.5, 395, 2, -0.5
*EQUATION
3
2039, 3, 1.0, 347, 3, -0.5, 395, 3, -0.5
*EQUATION
5
2040, 1, 1.0, 345, 1, -0.25, 393, 1, -0.25, 394, 1, -0.25, 346, 1, -0.25
*EQUATION
5
2040, 2, 1.0, 345, 2, -0.25, 393, 2, -0.25, 394, 2, -0.25, 346, 2, -0.25
*EQUATION
5
2040, 3, 1.0, 345, 3, -0.25, 393, 3, -0.25, 394, 3, -0.25, 346, 3, -0.25
*EQUATION
5
2042, 1, 1.0, 347, 1, -0.25, 395, 1, -0.25, 396, 1, -0.25, 348, 1, -0.25
*EQUATION
5
2042, 2, 1.0, 347, 2, -0.25, 395, 2, -0.25, 396, 2, -0.25, 348, 2, -0.25
*EQUATION
5
2042, 3, 1.0, 347, 3, -0.25, 395, 3, -0.25, 396, 3, -0.25, 348, 3, -0.25
*EQUATION
3
2043, 1, 1.0, 346, 1, -0.5, 394, 1, -0.5
*EQUATION
3
2043, 2, 1.0, 346, 2, -0.5, 394, 2, -0.5
*EQUATION
3
2043, 3, 1.0, 346, 3, -0.5, 394, 3, -0.5
*EQUATION
3
2045, 1, 1.0, 348, 1, -0.5, 396, 1, -0.5
*EQUATION
3
2045, 2, 1.0, 348, 2, -0.5, 396, 2, -0.5
*EQUATION
3
2045, 3, 1.0, 348, 3, -0.5, 396, 3, -0.5
*EQUATION
3
2047, 1, 1.0, 393, 1, -0.5, 394, 1, -0.5
*EQUATION
3
2047, 2, 1.0, 393, 2, -0.5, 394, 2, -0.5
*EQUATION
3
2047, 3, 1.0, 393, 3, -0.5, 394, 3, -0.5
*EQUATION
3
2049, 1, 1.0, 395, 1, -0.5, 396, 1, -0.5
*EQUATION
3
2049, 2, 1.0, 395, 2, -0.5, 396, 2, -0.5
*EQUATION
3
2049, 3, 1.0, 395, 3, -0.5, 396, 3, -0.5
*EQUATION
5
2051, 1, 1.0, 340, 1, -0.25, 350, 1, -0.25, 351, 1, -0.25, 342, 1, -0.25
*EQUATION
5
2051, 2, 1.0, 340, 2, -0.25, 350, 2, -0.25, 351, 2, -0.25, 342, 2, -0.25
*EQUATION
5
2051, 3, 1.0, 340, 3, -0.25, 350, 3, -0.25, 351, 3, -0.25, 342, 3, -0.25
*EQUATION
3
2052, 1, 1.0, 342, 1, -0.5, 351, 1, -0.5
*EQUATION
3
2052, 2, 1.0, 342, 2, -0.5, 351, 2, -0.5
*EQUATION
3
2052, 3, 1.0, 342, 3, -0.5, 351, 3, -0.5
*EQUATION
3
2053, 1, 1.0, 350, 1, -0.5, 351, 1, -0.5
*EQUATION
3
2053, 2, 1.0, 350, 2, -0.5, 351, 2, -0.5
*EQUATION
3
2053, 3, 1.0, 350, 3, -0.5, 351, 3, -0.5
*EQUATION
5
2055, 1, 1.0, 342, 1, -0.25, 390, 1, -0.25, 399, 1, -0.25, 351, 1, -0.25
*EQUATION
5
2055, 2, 1.0, 342, 2, -0.25, 390, 2, -0.25, 399, 2, -0.25, 351, 2, -0.25
*EQUATION
5
2055, 3, 1.0, 342, 3, -0.25, 390, 3, -0.25, 399, 3, -0.25, 351, 3, -0.25
*EQUATION
3
2057, 1, 1.0, 351, 1, -0.5, 399, 1, -0.5
*EQUATION
3
2057, 2, 1.0, 351, 2, -0.5, 399, 2, -0.5
*EQUATION
3
2057, 3, 1.0, 351, 3, -0.5, 399, 3, -0.5
*EQUATION
3
2059, 1, 1.0, 390, 1, -0.5, 399, 1, -0.5
*EQUATION
3
2059, 2, 1.0, 390, 2, -0.5, 399, 2, -0.5
*EQUATION
3
2059, 3, 1.0, 390, 3, -0.5, 399, 3, -0.5
*EQUATION
5
2061, 1, 1.0, 346, 1, -0.25, 394, 1, -0.25, 401, 1, -0.25, 353, 1, -0.25
*EQUATION
5
2061, 2, 1.0, 346, 2, -0.25, 394, 2, -0.25, 401, 2, -0.25, 353, 2, -0.25
*EQUATION
5
2061, 3, 1.0, 346, 3, -0.25, 394, 3, -0.25, 401, 3, -0.25, 353, 3, -0.25
*EQUATION
5
2063, 1, 1.0, 348, 1, -0.25, 396, 1, -0.25, 402, 1, -0.25, 354, 1, -0.25
*EQUATION
5
2063, 2, 1.0, 348, 2, -0.25, 396, 2, -0.25, 402, 2, -0.25, 354, 2, -0.25
*EQUATION
5
2063, 3, 1.0, 348, 3, -0.25, 396, 3, -0.25, 402, 3, -0.25, 354, 3, -0.25
*EQUATION
3
2064, 1, 1.0, 353, 1, -0.5, 401, 1, -0.5
*EQUATION
3
2064, 2, 1.0, 353, 2, -0.5, 401, 2, -0.5
*EQUATION
3
2064, 3, 1.0, 353, 3, -0.5, 401, 3, -0.5
*EQUATION
3
2066, 1, 1.0, 354, 1, -0.5, 402, 1, -0.5
*EQUATION
3
2066, 2, 1.0, 354, 2, -0.5, 402, 2, -0.5
*EQUATION
3
2066, 3, 1.0, 354, 3, -0.5, 402, 3, -0.5
*EQUATION
3
2067, 1, 1.0, 394, 1, -0.5, 401, 1, -0.5
*EQUATION
3
2067, 2, 1.0, 394, 2, -0.5, 401, 2, -0.5
*EQUATION
3
2067, 3, 1.0, 394, 3, -0.5, 401, 3, -0.5
*EQUATION
3
2069, 1, 1.0, 396, 1, -0.5, 402, 1, -0.5
*EQUATION
3
2069, 2, 1.0, 396, 2, -0.5, 402, 2, -0.5
*EQUATION
3
2069, 3, 1.0, 396, 3, -0.5, 402, 3, -0.5
*EQUATION
3
2072, 1, 1.0, 389, 1, -0.5, 437, 1, -0.5
*EQUATION
3
2072, 2, 1.0, 389, 2, -0.5, 437, 2, -0.5
*EQUATION
3
2072, 3, 1.0, 389, 3, -0.5, 437, 3, -0.5
*EQUATION
5
2074, 1, 1.0, 389, 1, -0.25, 437, 1, -0.25, 438, 1, -0.25, 390, 1, -0.25
*EQUATION
5
2074, 2, 1.0, 389, 2, -0.25, 437, 2, -0.25, 438, 2, -0.25, 390, 2, -0.25
*EQUATION
5
2074, 3, 1.0, 389, 3, -0.25, 437, 3, -0.25, 438, 3, -0.25, 390, 3, -0.25
*EQUATION
3
2076, 1, 1.0, 390, 1, -0.5, 438, 1, -0.5
*EQUATION
3
2076, 2, 1.0, 390, 2, -0.5, 438, 2, -0.5
*EQUATION
3
2076, 3, 1.0, 390, 3, -0.5, 438, 3, -0.5
*EQUATION
3
2079, 1, 1.0, 437, 1, -0.5, 438, 1, -0.5
*EQUATION
3
2079, 2, 1.0, 437, 2, -0.5, 438, 2, -0.5
*EQUATION
3
2079, 3, 1.0, 437, 3, -0.5, 438, 3, -0.5
*EQUATION
3
2080, 1, 1.0, 393, 1, -0.5, 441, 1, -0.5
*EQUATION
3
2080, 2, 1.0, 393, 2, -0.5, 441, 2, -0.5
*EQUATION
3
2080, 3, 1.0, 393, 3, -0.5, 441, 3, -0.5
*EQUATION
3
2082, 1, 1.0, 395, 1, -0.5, 443, 1, -0.5
*EQUATION
3
2082, 2, 1.0, 395, 2, -0.5, 443, 2, -0.5
*EQUATION
3
2082, 3, 1.0, 395, 3, -0.5, 443, 3, -0.5
*EQUATION
5
2083, 1, 1.0, 393, 1, -0.25, 441, 1, -0.25, 442, 1, -0.25, 394, 1, -0.25
*EQUATION
5
2083, 2, 1.0, 393, 2, -0.25, 441, 2, -0.25, 442, 2, -0.25, 394, 2, -0.25
*EQUATION
5
2083, 3, 1.0, 393, 3, -0.25, 441, 3, -0.25, 442, 3, -0.25, 394, 3, -0.25
*EQUATION
5
2085, 1, 1.0, 395, 1, -0.25, 443, 1, -0.25, 444, 1, -0.25, 396, 1, -0.25
*EQUATION
5
2085, 2, 1.0, 395, 2, -0.25, 443, 2, -0.25, 444, 2, -0.25, 396, 2, -0.25
*EQUATION
5
2085, 3, 1.0, 395, 3, -0.25, 443, 3, -0.25, 444, 3, -0.25, 396, 3, -0.25
*EQUATION
3
2086, 1, 1.0, 394, 1, -0.5, 442, 1, -0.5
*EQUATION
3
2086, 2, 1.0, 394, 2, -0.5, 442, 2, -0.5
*EQUATION
3
2086, 3, 1.0, 394, 3, -0.5, 442, 3, -0.5
*EQUATION
3
2088, 1, 1.0, 396, 1, -0.5, 444, 1, -0.5
*EQUATION
3
2088, 2, 1.0, 396, 2, -0.5, 444, 2, -0.5
*EQUATION
3
2088, 3, 1.0, 396, 3, -0.5, 444, 3, -0.5
*EQUATION
3
2090, 1, 1.0, 441, 1, -0.5, 442, 1, -0.5
*EQUATION
3
2090, 2, 1.0, 441, 2, -0.5, 442, 2, -0.5
*EQUATION
3
2090, 3, 1.0, 441, 3, -0.5, 442, 3, -0.5
*EQUATION
3
2092, 1, 1.0, 443, 1, -0.5, 444, 1, -0.5
*EQUATION
3
2092, 2, 1.0, 443, 2, -0.5, 444, 2, -0.5
*EQUATION
3
2092, 3, 1.0, 443, 3, -0.5, 444, 3, -0.5
*EQUATION
3
2094, 1, 1.0, 386, 1, -0.5, 1175, 1, -0.5
*EQUATION
3
2094, 2, 1.0, 386, 2, -0.5, 1175, 2, -0.5
*EQUATION
3
2094, 3, 1.0, 386, 3, -0.5, 1175, 3, -0.5
*EQUATION
3
2095, 1, 1.0, 386, 1, -0.5, 1190, 1, -0.5
*EQUATION
3
2095, 2, 1.0, 386, 2, -0.5, 1190, 2, -0.5
*EQUATION
3
2095, 3, 1.0, 386, 3, -0.5, 1190, 3, -0.5
*EQUATION
5
2096, 1, 1.0, 386, 1, -0.25, 1190, 1, -0.25, 1191, 1, -0.25, 1175, 1, -0.25
*EQUATION
5
2096, 2, 1.0, 386, 2, -0.25, 1190, 2, -0.25, 1191, 2, -0.25, 1175, 2, -0.25
*EQUATION
5
2096, 3, 1.0, 386, 3, -0.25, 1190, 3, -0.25, 1191, 3, -0.25, 1175, 3, -0.25
*EQUATION
3
2097, 1, 1.0, 1175, 1, -0.5, 1191, 1, -0.5
*EQUATION
3
2097, 2, 1.0, 1175, 2, -0.5, 1191, 2, -0.5
*EQUATION
3
2097, 3, 1.0, 1175, 3, -0.5, 1191, 3, -0.5
*EQUATION
3
2098, 1, 1.0, 1190, 1, -0.5, 1191, 1, -0.5
*EQUATION
3
2098, 2, 1.0, 1190, 2, -0.5, 1191, 2, -0.5
*EQUATION
3
2098, 3, 1.0, 1190, 3, -0.5, 1191, 3, -0.5
*EQUATION
3
2099, 1, 1.0, 386, 1, -0.5, 1182, 1, -0.5
*EQUATION
3
2099, 2, 1.0, 386, 2, -0.5, 1182, 2, -0.5
*EQUATION
3
2099, 3, 1.0, 386, 3, -0.5, 1182, 3, -0.5
*EQUATION
5
2100, 1, 1.0, 386, 1, -0.25, 1182, 1, -0.25, 1183, 1, -0.25, 1175, 1, -0.25
*EQUATION
5
2100, 2, 1.0, 386, 2, -0.25, 1182, 2, -0.25, 1183, 2, -0.25, 1175, 2, -0.25
*EQUATION
5
2100, 3, 1.0, 386, 3, -0.25, 1182, 3, -0.25, 1183, 3, -0.25, 1175, 3, -0.25
*EQUATION
3
2101, 1, 1.0, 1175, 1, -0.5, 1183, 1, -0.5
*EQUATION
3
2101, 2, 1.0, 1175, 2, -0.5, 1183, 2, -0.5
*EQUATION
3
2101, 3, 1.0, 1175, 3, -0.5, 1183, 3, -0.5
*EQUATION
5
2104, 1, 1.0, 1175, 1, -0.25, 1183, 1, -0.25, 1195, 1, -0.25, 1191, 1, -0.25
*EQUATION
5
2104, 2, 1.0, 1175, 2, -0.25, 1183, 2, -0.25, 1195, 2, -0.25, 1191, 2, -0.25
*EQUATION
5
2104, 3, 1.0, 1175, 3, -0.25, 1183, 3, -0.25, 1195, 3, -0.25, 1191, 3, -0.25
*EQUATION
3
2107, 1, 1.0, 1191, 1, -0.5, 1195, 1, -0.5
*EQUATION
3
2107, 2, 1.0, 1191, 2, -0.5, 1195, 2, -0.5
*EQUATION
3
2107, 3, 1.0, 1191, 3, -0.5, 1195, 3, -0.5
*EQUATION
3
2108, 1, 1.0, 1182, 1, -0.5, 1183, 1, -0.5
*EQUATION
3
2108, 2, 1.0, 1182, 2, -0.5, 1183, 2, -0.5
*EQUATION
3
2108, 3, 1.0, 1182, 3, -0.5, 1183, 3, -0.5
*EQUATION
3
2109, 1, 1.0, 1182, 1, -0.5, 1194, 1, -0.5
*EQUATION
3
2109, 2, 1.0, 1182, 2, -0.5, 1194, 2, -0.5
*EQUATION
3
2109, 3, 1.0, 1182, 3, -0.5, 1194, 3, -0.5
*EQUATION
5
2110, 1, 1.0, 1182, 1, -0.25, 1194, 1, -0.25, 1195, 1, -0.25, 1183, 1, -0.25
*EQUATION
5
2110, 2, 1.0, 1182, 2, -0.25, 1194, 2, -0.25, 1195, 2, -0.25, 1183, 2, -0.25
*EQUATION
5
2110, 3, 1.0, 1182, 3, -0.25, 1194, 3, -0.25, 1195, 3, -0.25, 1183, 3, -0.25
*EQUATION
3
2111, 1, 1.0, 1183, 1, -0.5, 1195, 1, -0.5
*EQUATION
3
2111, 2, 1.0, 1183, 2, -0.5, 1195, 2, -0.5
*EQUATION
3
2111, 3, 1.0, 1183, 3, -0.5, 1195, 3, -0.5
*EQUATION
3
2112, 1, 1.0, 1194, 1, -0.5, 1195, 1, -0.5
*EQUATION
3
2112, 2, 1.0, 1194, 2, -0.5, 1195, 2, -0.5
*EQUATION
3
2112, 3, 1.0, 1194, 3, -0.5, 1195, 3, -0.5
*EQUATION
3
2113, 1, 1.0, 397, 1, -0.5, 1190, 1, -0.5
*EQUATION
3
2113, 2, 1.0, 397, 2, -0.5, 1190, 2, -0.5
*EQUATION
3
2113, 3, 1.0, 397, 3, -0.5, 1190, 3, -0.5
*EQUATION
5
2114, 1, 1.0, 1190, 1, -0.25, 397, 1, -0.25, 1193, 1, -0.25, 1191, 1, -0.25
*EQUATION
5
2114, 2, 1.0, 1190, 2, -0.25, 397, 2, -0.25, 1193, 2, -0.25, 1191, 2, -0.25
*EQUATION
5
2114, 3, 1.0, 1190, 3, -0.25, 397, 3, -0.25, 1193, 3, -0.25, 1191, 3, -0.25
*EQUATION
3
2115, 1, 1.0, 1191, 1, -0.5, 1193, 1, -0.5
*EQUATION
3
2115, 2, 1.0, 1191, 2, -0.5, 1193, 2, -0.5
*EQUATION
3
2115, 3, 1.0, 1191, 3, -0.5, 1193, 3, -0.5
*EQUATION
3
2116, 1, 1.0, 397, 1, -0.5, 1193, 1, -0.5
*EQUATION
3
2116, 2, 1.0, 397, 2, -0.5, 1193, 2, -0.5
*EQUATION
3
2116, 3, 1.0, 397, 3, -0.5, 1193, 3, -0.5
*EQUATION
5
2119, 1, 1.0, 1191, 1, -0.25, 1195, 1, -0.25, 1198, 1, -0.25, 1193, 1, -0.25
*EQUATION
5
2119, 2, 1.0, 1191, 2, -0.25, 1195, 2, -0.25, 1198, 2, -0.25, 1193, 2, -0.25
*EQUATION
5
2119, 3, 1.0, 1191, 3, -0.25, 1195, 3, -0.25, 1198, 3, -0.25, 1193, 3, -0.25
*EQUATION
3
2122, 1, 1.0, 1193, 1, -0.5, 1198, 1, -0.5
*EQUATION
3
2122, 2, 1.0, 1193, 2, -0.5, 1198, 2, -0.5
*EQUATION
3
2122, 3, 1.0, 1193, 3, -0.5, 1198, 3, -0.5
*EQUATION
3
2123, 1, 1.0, 1194, 1, -0.5, 1197, 1, -0.5
*EQUATION
3
2123, 2, 1.0, 1194, 2, -0.5, 1197, 2, -0.5
*EQUATION
3
2123, 3, 1.0, 1194, 3, -0.5, 1197, 3, -0.5
*EQUATION
5
2124, 1, 1.0, 1194, 1, -0.25, 1197, 1, -0.25, 1198, 1, -0.25, 1195, 1, -0.25
*EQUATION
5
2124, 2, 1.0, 1194, 2, -0.25, 1197, 2, -0.25, 1198, 2, -0.25, 1195, 2, -0.25
*EQUATION
5
2124, 3, 1.0, 1194, 3, -0.25, 1197, 3, -0.25, 1198, 3, -0.25, 1195, 3, -0.25
*EQUATION
3
2125, 1, 1.0, 1195, 1, -0.5, 1198, 1, -0.5
*EQUATION
3
2125, 2, 1.0, 1195, 2, -0.5, 1198, 2, -0.5
*EQUATION
3
2125, 3, 1.0, 1195, 3, -0.5, 1198, 3, -0.5
*EQUATION
3
2126, 1, 1.0, 1197, 1, -0.5, 1198, 1, -0.5
*EQUATION
3
2126, 2, 1.0, 1197, 2, -0.5, 1198, 2, -0.5
*EQUATION
3
2126, 3, 1.0, 1197, 3, -0.5, 1198, 3, -0.5
*EQUATION
5
2128, 1, 1.0, 390, 1, -0.25, 438, 1, -0.25, 447, 1, -0.25, 399, 1, -0.25
*EQUATION
5
2128, 2, 1.0, 390, 2, -0.25, 438, 2, -0.25, 447, 2, -0.25, 399, 2, -0.25
*EQUATION
5
2128, 3, 1.0, 390, 3, -0.25, 438, 3, -0.25, 447, 3, -0.25, 399, 3, -0.25
*EQUATION
3
2130, 1, 1.0, 399, 1, -0.5, 447, 1, -0.5
*EQUATION
3
2130, 2, 1.0, 399, 2, -0.5, 447, 2, -0.5
*EQUATION
3
2130, 3, 1.0, 399, 3, -0.5, 447, 3, -0.5
*EQUATION
5
2131, 1, 1.0, 394, 1, -0.25, 442, 1, -0.25, 449, 1, -0.25, 401, 1, -0.25
*EQUATION
5
2131, 2, 1.0, 394, 2, -0.25, 442, 2, -0.25, 449, 2, -0.25, 401, 2, -0.25
*EQUATION
5
2131, 3, 1.0, 394, 3, -0.25, 442, 3, -0.25, 449, 3, -0.25, 401, 3, -0.25
*EQUATION
5
2133, 1, 1.0, 396, 1, -0.25, 444, 1, -0.25, 450, 1, -0.25, 402, 1, -0.25
*EQUATION
5
2133, 2, 1.0, 396, 2, -0.25, 444, 2, -0.25, 450, 2, -0.25, 402, 2, -0.25
*EQUATION
5
2133, 3, 1.0, 396, 3, -0.25, 444, 3, -0.25, 450, 3, -0.25, 402, 3, -0.25
*EQUATION
3
2134, 1, 1.0, 401, 1, -0.5, 449, 1, -0.5
*EQUATION
3
2134, 2, 1.0, 401, 2, -0.5, 449, 2, -0.5
*EQUATION
3
2134, 3, 1.0, 401, 3, -0.5, 449, 3, -0.5
*EQUATION
3
2136, 1, 1.0, 402, 1, -0.5, 450, 1, -0.5
*EQUATION
3
2136, 2, 1.0, 402, 2, -0.5, 450, 2, -0.5
*EQUATION
3
2136, 3, 1.0, 402, 3, -0.5, 450, 3, -0.5
*EQUATION
3
2137, 1, 1.0, 442, 1, -0.5, 449, 1, -0.5
*EQUATION
3
2137, 2, 1.0, 442, 2, -0.5, 449, 2, -0.5
*EQUATION
3
2137, 3, 1.0, 442, 3, -0.5, 449, 3, -0.5
*EQUATION
3
2139, 1, 1.0, 444, 1, -0.5, 450, 1, -0.5
*EQUATION
3
2139, 2, 1.0, 444, 2, -0.5, 450, 2, -0.5
*EQUATION
3
2139, 3, 1.0, 444, 3, -0.5, 450, 3, -0.5
*EQUATION
3
2141, 1, 1.0, 433, 1, -0.5, 1185, 1, -0.5
*EQUATION
3
2141, 2, 1.0, 433, 2, -0.5, 1185, 2, -0.5
*EQUATION
3
2141, 3, 1.0, 433, 3, -0.5, 1185, 3, -0.5
*EQUATION
3
2142, 1, 1.0, 433, 1, -0.5, 1186, 1, -0.5
*EQUATION
3
2142, 2, 1.0, 433, 2, -0.5, 1186, 2, -0.5
*EQUATION
3
2142, 3, 1.0, 433, 3, -0.5, 1186, 3, -0.5
*EQUATION
5
2143, 1, 1.0, 433, 1, -0.25, 1186, 1, -0.25, 1187, 1, -0.25, 1185, 1, -0.25
*EQUATION
5
2143, 2, 1.0, 433, 2, -0.25, 1186, 2, -0.25, 1187, 2, -0.25, 1185, 2, -0.25
*EQUATION
5
2143, 3, 1.0, 433, 3, -0.25, 1186, 3, -0.25, 1187, 3, -0.25, 1185, 3, -0.25
*EQUATION
3
2144, 1, 1.0, 1185, 1, -0.5, 1187, 1, -0.5
*EQUATION
3
2144, 2, 1.0, 1185, 2, -0.5, 1187, 2, -0.5
*EQUATION
3
2144, 3, 1.0, 1185, 3, -0.5, 1187, 3, -0.5
*EQUATION
3
2145, 1, 1.0, 1186, 1, -0.5, 1187, 1, -0.5
*EQUATION
3
2145, 2, 1.0, 1186, 2, -0.5, 1187, 2, -0.5
*EQUATION
3
2145, 3, 1.0, 1186, 3, -0.5, 1187, 3, -0.5
*EQUATION
3
2148, 1, 1.0, 1185, 1, -0.5, 1205, 1, -0.5
*EQUATION
3
2148, 2, 1.0, 1185, 2, -0.5, 1205, 2, -0.5
*EQUATION
3
2148, 3, 1.0, 1185, 3, -0.5, 1205, 3, -0.5
*EQUATION
5
2151, 1, 1.0, 1185, 1, -0.25, 1205, 1, -0.25, 1208, 1, -0.25, 1187, 1, -0.25
*EQUATION
5
2151, 2, 1.0, 1185, 2, -0.25, 1205, 2, -0.25, 1208, 2, -0.25, 1187, 2, -0.25
*EQUATION
5
2151, 3, 1.0, 1185, 3, -0.25, 1205, 3, -0.25, 1208, 3, -0.25, 1187, 3, -0.25
*EQUATION
3
2154, 1, 1.0, 1187, 1, -0.5, 1208, 1, -0.5
*EQUATION
3
2154, 2, 1.0, 1187, 2, -0.5, 1208, 2, -0.5
*EQUATION
3
2154, 3, 1.0, 1187, 3, -0.5, 1208, 3, -0.5
*EQUATION
3
2155, 1, 1.0, 1204, 1, -0.5, 1205, 1, -0.5
*EQUATION
3
2155, 2, 1.0, 1204, 2, -0.5, 1205, 2, -0.5
*EQUATION
3
2155, 3, 1.0, 1204, 3, -0.5, 1205, 3, -0.5
*EQUATION
3
2156, 1, 1.0, 1204, 1, -0.5, 1207, 1, -0.5
*EQUATION
3
2156, 2, 1.0, 1204, 2, -0.5, 1207, 2, -0.5
*EQUATION
3
2156, 3, 1.0, 1204, 3, -0.5, 1207, 3, -0.5
*EQUATION
5
2157, 1, 1.0, 1204, 1, -0.25, 1207, 1, -0.25, 1208, 1, -0.25, 1205, 1, -0.25
*EQUATION
5
2157, 2, 1.0, 1204, 2, -0.25, 1207, 2, -0.25, 1208, 2, -0.25, 1205, 2, -0.25
*EQUATION
5
2157, 3, 1.0, 1204, 3, -0.25, 1207, 3, -0.25, 1208, 3, -0.25, 1205, 3, -0.25
*EQUATION
3
2158, 1, 1.0, 1205, 1, -0.5, 1208, 1, -0.5
*EQUATION
3
2158, 2, 1.0, 1205, 2, -0.5, 1208, 2, -0.5
*EQUATION
3
2158, 3, 1.0, 1205, 3, -0.5, 1208, 3, -0.5
*EQUATION
3
2159, 1, 1.0, 1207, 1, -0.5, 1208, 1, -0.5
*EQUATION
3
2159, 2, 1.0, 1207, 2, -0.5, 1208, 2, -0.5
*EQUATION
3
2159, 3, 1.0, 1207, 3, -0.5, 1208, 3, -0.5
*EQUATION
3
2160, 1, 1.0, 434, 1, -0.5, 1186, 1, -0.5
*EQUATION
3
2160, 2, 1.0, 434, 2, -0.5, 1186, 2, -0.5
*EQUATION
3
2160, 3, 1.0, 434, 3, -0.5, 1186, 3, -0.5
*EQUATION
5
2161, 1, 1.0, 1186, 1, -0.25, 434, 1, -0.25, 1189, 1, -0.25, 1187, 1, -0.25
*EQUATION
5
2161, 2, 1.0, 1186, 2, -0.25, 434, 2, -0.25, 1189, 2, -0.25, 1187, 2, -0.25
*EQUATION
5
2161, 3, 1.0, 1186, 3, -0.25, 434, 3, -0.25, 1189, 3, -0.25, 1187, 3, -0.25
*EQUATION
3
2162, 1, 1.0, 1187, 1, -0.5, 1189, 1, -0.5
*EQUATION
3
2162, 2, 1.0, 1187, 2, -0.5, 1189, 2, -0.5
*EQUATION
3
2162, 3, 1.0, 1187, 3, -0.5, 1189, 3, -0.5
*EQUATION
3
2163, 1, 1.0, 434, 1, -0.5, 1189, 1, -0.5
*EQUATION
3
2163, 2, 1.0, 434, 2, -0.5, 1189, 2, -0.5
*EQUATION
3
2163, 3, 1.0, 434, 3, -0.5, 1189, 3, -0.5
*EQUATION
5
2166, 1, 1.0, 1187, 1, -0.25, 1208, 1, -0.25, 1211, 1, -0.25, 1189, 1, -0.25
*EQUATION
5
2166, 2, 1.0, 1187, 2, -0.25, 1208, 2, -0.25, 1211, 2, -0.25, 1189, 2, -0.25
*EQUATION
5
2166, 3, 1.0, 1187, 3, -0.25, 1208, 3, -0.25, 1211, 3, -0.25, 1189, 3, -0.25
*EQUATION
3
2167, 1, 1.0, 434, 1, -0.5, 1210, 1, -0.5
*EQUATION
3
2167, 2, 1.0, 434, 2, -0.5, 1210, 2, -0.5
*EQUATION
3
2167, 3, 1.0, 434, 3, -0.5, 1210, 3, -0.5
*EQUATION
5
2168, 1, 1.0, 434, 1, -0.25, 1210, 1, -0.25, 1211, 1, -0.25, 1189, 1, -0.25
*EQUATION
5
2168, 2, 1.0, 434, 2, -0.25, 1210, 2, -0.25, 1211, 2, -0.25, 1189, 2, -0.25
*EQUATION
5
2168, 3, 1.0, 434, 3, -0.25, 1210, 3, -0.25, 1211, 3, -0.25, 1189, 3, -0.25
*EQUATION
3
2169, 1, 1.0, 1189, 1, -0.5, 1211, 1, -0.5
*EQUATION
3
2169, 2, 1.0, 1189, 2, -0.5, 1211, 2, -0.5
*EQUATION
3
2169, 3, 1.0, 1189, 3, -0.5, 1211, 3, -0.5
*EQUATION
3
2170, 1, 1.0, 1207, 1, -0.5, 1210, 1, -0.5
*EQUATION
3
2170, 2, 1.0, 1207, 2, -0.5, 1210, 2, -0.5
*EQUATION
3
2170, 3, 1.0, 1207, 3, -0.5, 1210, 3, -0.5
*EQUATION
5
2171, 1, 1.0, 1207, 1, -0.25, 1210, 1, -0.25, 1211, 1, -0.25, 1208, 1, -0.25
*EQUATION
5
2171, 2, 1.0, 1207, 2, -0.25, 1210, 2, -0.25, 1211, 2, -0.25, 1208, 2, -0.25
*EQUATION
5
2171, 3, 1.0, 1207, 3, -0.25, 1210, 3, -0.25, 1211, 3, -0.25, 1208, 3, -0.25
*EQUATION
3
2172, 1, 1.0, 1208, 1, -0.5, 1211, 1, -0.5
*EQUATION
3
2172, 2, 1.0, 1208, 2, -0.5, 1211, 2, -0.5
*EQUATION
3
2172, 3, 1.0, 1208, 3, -0.5, 1211, 3, -0.5
*EQUATION
3
2173, 1, 1.0, 1210, 1, -0.5, 1211, 1, -0.5
*EQUATION
3
2173, 2, 1.0, 1210, 2, -0.5, 1211, 2, -0.5
*EQUATION
3
2173, 3, 1.0, 1210, 3, -0.5, 1211, 3, -0.5
*EQUATION
3
2175, 1, 1.0, 437, 1, -0.5, 485, 1, -0.5
*EQUATION
3
2175, 2, 1.0, 437, 2, -0.5, 485, 2, -0.5
*EQUATION
3
2175, 3, 1.0, 437, 3, -0.5, 485, 3, -0.5
*EQUATION
5
2177, 1, 1.0, 437, 1, -0.25, 485, 1, -0.25, 486, 1, -0.25, 438, 1, -0.25
*EQUATION
5
2177, 2, 1.0, 437, 2, -0.25, 485, 2, -0.25, 486, 2, -0.25, 438, 2, -0.25
*EQUATION
5
2177, 3, 1.0, 437, 3, -0.25, 485, 3, -0.25, 486, 3, -0.25, 438, 3, -0.25
*EQUATION
3
2178, 1, 1.0, 441, 1, -0.5, 489, 1, -0.5
*EQUATION
3
2178, 2, 1.0, 441, 2, -0.5, 489, 2, -0.5
*EQUATION
3
2178, 3, 1.0, 441, 3, -0.5, 489, 3, -0.5
*EQUATION
3
2180, 1, 1.0, 443, 1, -0.5, 491, 1, -0.5
*EQUATION
3
2180, 2, 1.0, 443, 2, -0.5, 491, 2, -0.5
*EQUATION
3
2180, 3, 1.0, 443, 3, -0.5, 491, 3, -0.5
*EQUATION
5
2181, 1, 1.0, 441, 1, -0.25, 489, 1, -0.25, 490, 1, -0.25, 442, 1, -0.25
*EQUATION
5
2181, 2, 1.0, 441, 2, -0.25, 489, 2, -0.25, 490, 2, -0.25, 442, 2, -0.25
*EQUATION
5
2181, 3, 1.0, 441, 3, -0.25, 489, 3, -0.25, 490, 3, -0.25, 442, 3, -0.25
*EQUATION
5
2183, 1, 1.0, 443, 1, -0.25, 491, 1, -0.25, 492, 1, -0.25, 444, 1, -0.25
*EQUATION
5
2183, 2, 1.0, 443, 2, -0.25, 491, 2, -0.25, 492, 2, -0.25, 444, 2, -0.25
*EQUATION
5
2183, 3, 1.0, 443, 3, -0.25, 491, 3, -0.25, 492, 3, -0.25, 444, 3, -0.25
*EQUATION
3
2184, 1, 1.0, 442, 1, -0.5, 490, 1, -0.5
*EQUATION
3
2184, 2, 1.0, 442, 2, -0.5, 490, 2, -0.5
*EQUATION
3
2184, 3, 1.0, 442, 3, -0.5, 490, 3, -0.5
*EQUATION
3
2186, 1, 1.0, 444, 1, -0.5, 492, 1, -0.5
*EQUATION
3
2186, 2, 1.0, 444, 2, -0.5, 492, 2, -0.5
*EQUATION
3
2186, 3, 1.0, 444, 3, -0.5, 492, 3, -0.5
*EQUATION
3
2188, 1, 1.0, 489, 1, -0.5, 490, 1, -0.5
*EQUATION
3
2188, 2, 1.0, 489, 2, -0.5, 490, 2, -0.5
*EQUATION
3
2188, 3, 1.0, 489, 3, -0.5, 490, 3, -0.5
*EQUATION
3
2190, 1, 1.0, 491, 1, -0.5, 492, 1, -0.5
*EQUATION
3
2190, 2, 1.0, 491, 2, -0.5, 492, 2, -0.5
*EQUATION
3
2190, 3, 1.0, 491, 3, -0.5, 492, 3, -0.5
*EQUATION
3
2192, 1, 1.0, 438, 1, -0.5, 440, 1, -0.5
*EQUATION
3
2192, 2, 1.0, 438, 2, -0.5, 440, 2, -0.5
*EQUATION
3
2192, 3, 1.0, 438, 3, -0.5, 440, 3, -0.5
*EQUATION
5
2193, 1, 1.0, 438, 1, -0.25, 447, 1, -0.25, 448, 1, -0.25, 440, 1, -0.25
*EQUATION
5
2193, 2, 1.0, 438, 2, -0.25, 447, 2, -0.25, 448, 2, -0.25, 440, 2, -0.25
*EQUATION
5
2193, 3, 1.0, 438, 3, -0.25, 447, 3, -0.25, 448, 3, -0.25, 440, 3, -0.25
*EQUATION
3
2194, 1, 1.0, 440, 1, -0.5, 448, 1, -0.5
*EQUATION
3
2194, 2, 1.0, 440, 2, -0.5, 448, 2, -0.5
*EQUATION
3
2194, 3, 1.0, 440, 3, -0.5, 448, 3, -0.5
*EQUATION
3
2195, 1, 1.0, 447, 1, -0.5, 448, 1, -0.5
*EQUATION
3
2195, 2, 1.0, 447, 2, -0.5, 448, 2, -0.5
*EQUATION
3
2195, 3, 1.0, 447, 3, -0.5, 448, 3, -0.5
*EQUATION
5
2196, 1, 1.0, 438, 1, -0.25, 486, 1, -0.25, 488, 1, -0.25, 440, 1, -0.25
*EQUATION
5
2196, 2, 1.0, 438, 2, -0.25, 486, 2, -0.25, 488, 2, -0.25, 440, 2, -0.25
*EQUATION
5
2196, 3, 1.0, 438, 3, -0.25, 486, 3, -0.25, 488, 3, -0.25, 440, 3, -0.25
*EQUATION
3
2197, 1, 1.0, 440, 1, -0.5, 488, 1, -0.5
*EQUATION
3
2197, 2, 1.0, 440, 2, -0.5, 488, 2, -0.5
*EQUATION
3
2197, 3, 1.0, 440, 3, -0.5, 488, 3, -0.5
*EQUATION
5
2199, 1, 1.0, 440, 1, -0.25, 488, 1, -0.25, 496, 1, -0.25, 448, 1, -0.25
*EQUATION
5
2199, 2, 1.0, 440, 2, -0.25, 488, 2, -0.25, 496, 2, -0.25, 448, 2, -0.25
*EQUATION
5
2199, 3, 1.0, 440, 3, -0.25, 488, 3, -0.25, 496, 3, -0.25, 448, 3, -0.25
*EQUATION
3
2201, 1, 1.0, 448, 1, -0.5, 496, 1, -0.5
*EQUATION
3
2201, 2, 1.0, 448, 2, -0.5, 496, 2, -0.5
*EQUATION
3
2201, 3, 1.0, 448, 3, -0.5, 496, 3, -0.5
*EQUATION
3
2202, 1, 1.0, 486, 1, -0.5, 488, 1, -0.5
*EQUATION
3
2202, 2, 1.0, 486, 2, -0.5, 488, 2, -0.5
*EQUATION
3
2202, 3, 1.0, 486, 3, -0.5, 488, 3, -0.5
*EQUATION
3
2204, 1, 1.0, 488, 1, -0.5, 496, 1, -0.5
*EQUATION
3
2204, 2, 1.0, 488, 2, -0.5, 496, 2, -0.5
*EQUATION
3
2204, 3, 1.0, 488, 3, -0.5, 496, 3, -0.5
*EQUATION
5
2206, 1, 1.0, 442, 1, -0.25, 490, 1, -0.25, 497, 1, -0.25, 449, 1, -0.25
*EQUATION
5
2206, 2, 1.0, 442, 2, -0.25, 490, 2, -0.25, 497, 2, -0.25, 449, 2, -0.25
*EQUATION
5
2206, 3, 1.0, 442, 3, -0.25, 490, 3, -0.25, 497, 3, -0.25, 449, 3, -0.25
*EQUATION
5
2208, 1, 1.0, 444, 1, -0.25, 492, 1, -0.25, 498, 1, -0.25, 450, 1, -0.25
*EQUATION
5
2208, 2, 1.0, 444, 2, -0.25, 492, 2, -0.25, 498, 2, -0.25, 450, 2, -0.25
*EQUATION
5
2208, 3, 1.0, 444, 3, -0.25, 492, 3, -0.25, 498, 3, -0.25, 450, 3, -0.25
*EQUATION
3
2209, 1, 1.0, 449, 1, -0.5, 497, 1, -0.5
*EQUATION
3
2209, 2, 1.0, 449, 2, -0.5, 497, 2, -0.5
*EQUATION
3
2209, 3, 1.0, 449, 3, -0.5, 497, 3, -0.5
*EQUATION
3
2211, 1, 1.0, 450, 1, -0.5, 498, 1, -0.5
*EQUATION
3
2211, 2, 1.0, 450, 2, -0.5, 498, 2, -0.5
*EQUATION
3
2211, 3, 1.0, 450, 3, -0.5, 498, 3, -0.5
*EQUATION
3
2212, 1, 1.0, 490, 1, -0.5, 497, 1, -0.5
*EQUATION
3
2212, 2, 1.0, 490, 2, -0.5, 497, 2, -0.5
*EQUATION
3
2212, 3, 1.0, 490, 3, -0.5, 497, 3, -0.5
*EQUATION
3
2214, 1, 1.0, 492, 1, -0.5, 498, 1, -0.5
*EQUATION
3
2214, 2, 1.0, 492, 2, -0.5, 498, 2, -0.5
*EQUATION
3
2214, 3, 1.0, 492, 3, -0.5, 498, 3, -0.5
*EQUATION
3
2216, 1, 1.0, 485, 1, -0.5, 487, 1, -0.5
*EQUATION
3
2216, 2, 1.0, 485, 2, -0.5, 487, 2, -0.5
*EQUATION
3
2216, 3, 1.0, 485, 3, -0.5, 487, 3, -0.5
*EQUATION
5
2217, 1, 1.0, 485, 1, -0.25, 486, 1, -0.25, 488, 1, -0.25, 487, 1, -0.25
*EQUATION
5
2217, 2, 1.0, 485, 2, -0.25, 486, 2, -0.25, 488, 2, -0.25, 487, 2, -0.25
*EQUATION
5
2217, 3, 1.0, 485, 3, -0.25, 486, 3, -0.25, 488, 3, -0.25, 487, 3, -0.25
*EQUATION
3
2218, 1, 1.0, 487, 1, -0.5, 488, 1, -0.5
*EQUATION
3
2218, 2, 1.0, 487, 2, -0.5, 488, 2, -0.5
*EQUATION
3
2218, 3, 1.0, 487, 3, -0.5, 488, 3, -0.5
*EQUATION
3
2220, 1, 1.0, 487, 1, -0.5, 535, 1, -0.5
*EQUATION
3
2220, 2, 1.0, 487, 2, -0.5, 535, 2, -0.5
*EQUATION
3
2220, 3, 1.0, 487, 3, -0.5, 535, 3, -0.5
*EQUATION
5
2222, 1, 1.0, 487, 1, -0.25, 535, 1, -0.25, 536, 1, -0.25, 488, 1, -0.25
*EQUATION
5
2222, 2, 1.0, 487, 2, -0.25, 535, 2, -0.25, 536, 2, -0.25, 488, 2, -0.25
*EQUATION
5
2222, 3, 1.0, 487, 3, -0.25, 535, 3, -0.25, 536, 3, -0.25, 488, 3, -0.25
*EQUATION
3
2224, 1, 1.0, 488, 1, -0.5, 536, 1, -0.5
*EQUATION
3
2224, 2, 1.0, 488, 2, -0.5, 536, 2, -0.5
*EQUATION
3
2224, 3, 1.0, 488, 3, -0.5, 536, 3, -0.5
*EQUATION
3
2225, 1, 1.0, 489, 1, -0.5, 537, 1, -0.5
*EQUATION
3
2225, 2, 1.0, 489, 2, -0.5, 537, 2, -0.5
*EQUATION
3
2225, 3, 1.0, 489, 3, -0.5, 537, 3, -0.5
*EQUATION
3
2227, 1, 1.0, 491, 1, -0.5, 539, 1, -0.5
*EQUATION
3
2227, 2, 1.0, 491, 2, -0.5, 539, 2, -0.5
*EQUATION
3
2227, 3, 1.0, 491, 3, -0.5, 539, 3, -0.5
*EQUATION
5
2228, 1, 1.0, 489, 1, -0.25, 537, 1, -0.25, 538, 1, -0.25, 490, 1, -0.25
*EQUATION
5
2228, 2, 1.0, 489, 2, -0.25, 537, 2, -0.25, 538, 2, -0.25, 490, 2, -0.25
*EQUATION
5
2228, 3, 1.0, 489, 3, -0.25, 537, 3, -0.25, 538, 3, -0.25, 490, 3, -0.25
*EQUATION
3
2231, 1, 1.0, 490, 1, -0.5, 538, 1, -0.5
*EQUATION
3
2231, 2, 1.0, 490, 2, -0.5, 538, 2, -0.5
*EQUATION
3
2231, 3, 1.0, 490, 3, -0.5, 538, 3, -0.5
*EQUATION
3
2235, 1, 1.0, 537, 1, -0.5, 538, 1, -0.5
*EQUATION
3
2235, 2, 1.0, 537, 2, -0.5, 538, 2, -0.5
*EQUATION
3
2235, 3, 1.0, 537, 3, -0.5, 538, 3, -0.5
*EQUATION
5
2240, 1, 1.0, 488, 1, -0.25, 536, 1, -0.25, 544, 1, -0.25, 496, 1, -0.25
*EQUATION
5
2240, 2, 1.0, 488, 2, -0.25, 536, 2, -0.25, 544, 2, -0.25, 496, 2, -0.25
*EQUATION
5
2240, 3, 1.0, 488, 3, -0.25, 536, 3, -0.25, 544, 3, -0.25, 496, 3, -0.25
*EQUATION
3
2242, 1, 1.0, 496, 1, -0.5, 544, 1, -0.5
*EQUATION
3
2242, 2, 1.0, 496, 2, -0.5, 544, 2, -0.5
*EQUATION
3
2242, 3, 1.0, 496, 3, -0.5, 544, 3, -0.5
*EQUATION
5
2243, 1, 1.0, 490, 1, -0.25, 538, 1, -0.25, 545, 1, -0.25, 497, 1, -0.25
*EQUATION
5
2243, 2, 1.0, 490, 2, -0.25, 538, 2, -0.25, 545, 2, -0.25, 497, 2, -0.25
*EQUATION
5
2243, 3, 1.0, 490, 3, -0.25, 538, 3, -0.25, 545, 3, -0.25, 497, 3, -0.25
*EQUATION
3
2246, 1, 1.0, 497, 1, -0.5, 545, 1, -0.5
*EQUATION
3
2246, 2, 1.0, 497, 2, -0.5, 545, 2, -0.5
*EQUATION
3
2246, 3, 1.0, 497, 3, -0.5, 545, 3, -0.5
*EQUATION
3
2248, 1, 1.0, 498, 1, -0.5, 546, 1, -0.5
*EQUATION
3
2248, 2, 1.0, 498, 2, -0.5, 546, 2, -0.5
*EQUATION
3
2248, 3, 1.0, 498, 3, -0.5, 546, 3, -0.5
*EQUATION
3
2249, 1, 1.0, 538, 1, -0.5, 545, 1, -0.5
*EQUATION
3
2249, 2, 1.0, 538, 2, -0.5, 545, 2, -0.5
*EQUATION
3
2249, 3, 1.0, 538, 3, -0.5, 545, 3, -0.5
*EQUATION
3
2253, 1, 1.0, 491, 1, -0.5, 511, 1, -0.5
*EQUATION
3
2253, 2, 1.0, 491, 2, -0.5, 511, 2, -0.5
*EQUATION
3
2253, 3, 1.0, 491, 3, -0.5, 511, 3, -0.5
*EQUATION
5
2254, 1, 1.0, 491, 1, -0.25, 492, 1, -0.25, 513, 1, -0.25, 511, 1, -0.25
*EQUATION
5
2254, 2, 1.0, 491, 2, -0.25, 492, 2, -0.25, 513, 2, -0.25, 511, 2, -0.25
*EQUATION
5
2254, 3, 1.0, 491, 3, -0.25, 492, 3, -0.25, 513, 3, -0.25, 511, 3, -0.25
*EQUATION
3
2255, 1, 1.0, 511, 1, -0.5, 513, 1, -0.5
*EQUATION
3
2255, 2, 1.0, 511, 2, -0.5, 513, 2, -0.5
*EQUATION
3
2255, 3, 1.0, 511, 3, -0.5, 513, 3, -0.5
*EQUATION
3
2256, 1, 1.0, 492, 1, -0.5, 513, 1, -0.5
*EQUATION
3
2256, 2, 1.0, 492, 2, -0.5, 513, 2, -0.5
*EQUATION
3
2256, 3, 1.0, 492, 3, -0.5, 513, 3, -0.5
*EQUATION
5
2257, 1, 1.0, 491, 1, -0.25, 539, 1, -0.25, 559, 1, -0.25, 511, 1, -0.25
*EQUATION
5
2257, 2, 1.0, 491, 2, -0.25, 539, 2, -0.25, 559, 2, -0.25, 511, 2, -0.25
*EQUATION
5
2257, 3, 1.0, 491, 3, -0.25, 539, 3, -0.25, 559, 3, -0.25, 511, 3, -0.25
*EQUATION
3
2258, 1, 1.0, 511, 1, -0.5, 559, 1, -0.5
*EQUATION
3
2258, 2, 1.0, 511, 2, -0.5, 559, 2, -0.5
*EQUATION
3
2258, 3, 1.0, 511, 3, -0.5, 559, 3, -0.5
*EQUATION
5
2260, 1, 1.0, 511, 1, -0.25, 559, 1, -0.25, 561, 1, -0.25, 513, 1, -0.25
*EQUATION
5
2260, 2, 1.0, 511, 2, -0.25, 559, 2, -0.25, 561, 2, -0.25, 513, 2, -0.25
*EQUATION
5
2260, 3, 1.0, 511, 3, -0.25, 559, 3, -0.25, 561, 3, -0.25, 513, 3, -0.25
*EQUATION
3
2262, 1, 1.0, 513, 1, -0.5, 561, 1, -0.5
*EQUATION
3
2262, 2, 1.0, 513, 2, -0.5, 561, 2, -0.5
*EQUATION
3
2262, 3, 1.0, 513, 3, -0.5, 561, 3, -0.5
*EQUATION
3
2263, 1, 1.0, 539, 1, -0.5, 559, 1, -0.5
*EQUATION
3
2263, 2, 1.0, 539, 2, -0.5, 559, 2, -0.5
*EQUATION
3
2263, 3, 1.0, 539, 3, -0.5, 559, 3, -0.5
*EQUATION
3
2265, 1, 1.0, 559, 1, -0.5, 561, 1, -0.5
*EQUATION
3
2265, 2, 1.0, 559, 2, -0.5, 561, 2, -0.5
*EQUATION
3
2265, 3, 1.0, 559, 3, -0.5, 561, 3, -0.5
*EQUATION
5
2267, 1, 1.0, 492, 1, -0.25, 498, 1, -0.25, 515, 1, -0.25, 513, 1, -0.25
*EQUATION
5
2267, 2, 1.0, 492, 2, -0.25, 498, 2, -0.25, 515, 2, -0.25, 513, 2, -0.25
*EQUATION
5
2267, 3, 1.0, 492, 3, -0.25, 498, 3, -0.25, 515, 3, -0.25, 513, 3, -0.25
*EQUATION
3
2268, 1, 1.0, 513, 1, -0.5, 515, 1, -0.5
*EQUATION
3
2268, 2, 1.0, 513, 2, -0.5, 515, 2, -0.5
*EQUATION
3
2268, 3, 1.0, 513, 3, -0.5, 515, 3, -0.5
*EQUATION
3
2269, 1, 1.0, 498, 1, -0.5, 515, 1, -0.5
*EQUATION
3
2269, 2, 1.0, 498, 2, -0.5, 515, 2, -0.5
*EQUATION
3
2269, 3, 1.0, 498, 3, -0.5, 515, 3, -0.5
*EQUATION
5
2271, 1, 1.0, 513, 1, -0.25, 561, 1, -0.25, 563, 1, -0.25, 515, 1, -0.25
*EQUATION
5
2271, 2, 1.0, 513, 2, -0.25, 561, 2, -0.25, 563, 2, -0.25, 515, 2, -0.25
*EQUATION
5
2271, 3, 1.0, 513, 3, -0.25, 561, 3, -0.25, 563, 3, -0.25, 515, 3, -0.25
*EQUATION
5
2272, 1, 1.0, 498, 1, -0.25, 546, 1, -0.25, 563, 1, -0.25, 515, 1, -0.25
*EQUATION
5
2272, 2, 1.0, 498, 2, -0.25, 546, 2, -0.25, 563, 2, -0.25, 515, 2, -0.25
*EQUATION
5
2272, 3, 1.0, 498, 3, -0.25, 546, 3, -0.25, 563, 3, -0.25, 515, 3, -0.25
*EQUATION
3
2273, 1, 1.0, 515, 1, -0.5, 563, 1, -0.5
*EQUATION
3
2273, 2, 1.0, 515, 2, -0.5, 563, 2, -0.5
*EQUATION
3
2273, 3, 1.0, 515, 3, -0.5, 563, 3, -0.5
*EQUATION
3
2275, 1, 1.0, 561, 1, -0.5, 563, 1, -0.5
*EQUATION
3
2275, 2, 1.0, 561, 2, -0.5, 563, 2, -0.5
*EQUATION
3
2275, 3, 1.0, 561, 3, -0.5, 563, 3, -0.5
*EQUATION
3
2276, 1, 1.0, 546, 1, -0.5, 563, 1, -0.5
*EQUATION
3
2276, 2, 1.0, 546, 2, -0.5, 563, 2, -0.5
*EQUATION
3
2276, 3, 1.0, 546, 3, -0.5, 563, 3, -0.5
*EQUATION
3
2277, 1, 1.0, 535, 1, -0.5, 537, 1, -0.5
*EQUATION
3
2277, 2, 1.0, 535, 2, -0.5, 537, 2, -0.5
*EQUATION
3
2277, 3, 1.0, 535, 3, -0.5, 537, 3, -0.5
*EQUATION
5
2278, 1, 1.0, 535, 1, -0.25, 536, 1, -0.25, 538, 1, -0.25, 537, 1, -0.25
*EQUATION
5
2278, 2, 1.0, 535, 2, -0.25, 536, 2, -0.25, 538, 2, -0.25, 537, 2, -0.25
*EQUATION
5
2278, 3, 1.0, 535, 3, -0.25, 536, 3, -0.25, 538, 3, -0.25, 537, 3, -0.25
*EQUATION
3
2279, 1, 1.0, 536, 1, -0.5, 538, 1, -0.5
*EQUATION
3
2279, 2, 1.0, 536, 2, -0.5, 538, 2, -0.5
*EQUATION
3
2279, 3, 1.0, 536, 3, -0.5, 538, 3, -0.5
*EQUATION
3
2291, 1, 1.0, 539, 1, -0.5, 587, 1, -0.5
*EQUATION
3
2291, 2, 1.0, 539, 2, -0.5, 587, 2, -0.5
*EQUATION
3
2291, 3, 1.0, 539, 3, -0.5, 587, 3, -0.5
*EQUATION
5
2300, 1, 1.0, 536, 1, -0.25, 544, 1, -0.25, 545, 1, -0.25, 538, 1, -0.25
*EQUATION
5
2300, 2, 1.0, 536, 2, -0.25, 544, 2, -0.25, 545, 2, -0.25, 538, 2, -0.25
*EQUATION
5
2300, 3, 1.0, 536, 3, -0.25, 544, 3, -0.25, 545, 3, -0.25, 538, 3, -0.25
*EQUATION
3
2301, 1, 1.0, 544, 1, -0.5, 545, 1, -0.5
*EQUATION
3
2301, 2, 1.0, 544, 2, -0.5, 545, 2, -0.5
*EQUATION
3
2301, 3, 1.0, 544, 3, -0.5, 545, 3, -0.5
*EQUATION
3
2312, 1, 1.0, 546, 1, -0.5, 594, 1, -0.5
*EQUATION
3
2312, 2, 1.0, 546, 2, -0.5, 594, 2, -0.5
*EQUATION
3
2312, 3, 1.0, 546, 3, -0.5, 594, 3, -0.5
*EQUATION
5
2316, 1, 1.0, 539, 1, -0.25, 587, 1, -0.25, 607, 1, -0.25, 559, 1, -0.25
*EQUATION
5
2316, 2, 1.0, 539, 2, -0.25, 587, 2, -0.25, 607, 2, -0.25, 559, 2, -0.25
*EQUATION
5
2316, 3, 1.0, 539, 3, -0.25, 587, 3, -0.25, 607, 3, -0.25, 559, 3, -0.25
*EQUATION
3
2317, 1, 1.0, 559, 1, -0.5, 607, 1, -0.5
*EQUATION
3
2317, 2, 1.0, 559, 2, -0.5, 607, 2, -0.5
*EQUATION
3
2317, 3, 1.0, 559, 3, -0.5, 607, 3, -0.5
*EQUATION
5
2319, 1, 1.0, 559, 1, -0.25, 607, 1, -0.25, 609, 1, -0.25, 561, 1, -0.25
*EQUATION
5
2319, 2, 1.0, 559, 2, -0.25, 607, 2, -0.25, 609, 2, -0.25, 561, 2, -0.25
*EQUATION
5
2319, 3, 1.0, 559, 3, -0.25, 607, 3, -0.25, 609, 3, -0.25, 561, 3, -0.25
*EQUATION
3
2321, 1, 1.0, 561, 1, -0.5, 609, 1, -0.5
*EQUATION
3
2321, 2, 1.0, 561, 2, -0.5, 609, 2, -0.5
*EQUATION
3
2321, 3, 1.0, 561, 3, -0.5, 609, 3, -0.5
*EQUATION
3
2322, 1, 1.0, 587, 1, -0.5, 607, 1, -0.5
*EQUATION
3
2322, 2, 1.0, 587, 2, -0.5, 607, 2, -0.5
*EQUATION
3
2322, 3, 1.0, 587, 3, -0.5, 607, 3, -0.5
*EQUATION
3
2324, 1, 1.0, 607, 1, -0.5, 609, 1, -0.5
*EQUATION
3
2324, 2, 1.0, 607, 2, -0.5, 609, 2, -0.5
*EQUATION
3
2324, 3, 1.0, 607, 3, -0.5, 609, 3, -0.5
*EQUATION
5
2327, 1, 1.0, 561, 1, -0.25, 609, 1, -0.25, 611, 1, -0.25, 563, 1, -0.25
*EQUATION
5
2327, 2, 1.0, 561, 2, -0.25, 609, 2, -0.25, 611, 2, -0.25, 563, 2, -0.25
*EQUATION
5
2327, 3, 1.0, 561, 3, -0.25, 609, 3, -0.25, 611, 3, -0.25, 563, 3, -0.25
*EQUATION
5
2328, 1, 1.0, 546, 1, -0.25, 594, 1, -0.25, 611, 1, -0.25, 563, 1, -0.25
*EQUATION
5
2328, 2, 1.0, 546, 2, -0.25, 594, 2, -0.25, 611, 2, -0.25, 563, 2, -0.25
*EQUATION
5
2328, 3, 1.0, 546, 3, -0.25, 594, 3, -0.25, 611, 3, -0.25, 563, 3, -0.25
*EQUATION
3
2329, 1, 1.0, 563, 1, -0.5, 611, 1, -0.5
*EQUATION
3
2329, 2, 1.0, 563, 2, -0.5, 611, 2, -0.5
*EQUATION
3
2329, 3, 1.0, 563, 3, -0.5, 611, 3, -0.5
*EQUATION
3
2331, 1, 1.0, 609, 1, -0.5, 611, 1, -0.5
*EQUATION
3
2331, 2, 1.0, 609, 2, -0.5, 611, 2, -0.5
*EQUATION
3
2331, 3, 1.0, 609, 3, -0.5, 611, 3, -0.5
*EQUATION
3
2332, 1, 1.0, 594, 1, -0.5, 611, 1, -0.5
*EQUATION
3
2332, 2, 1.0, 594, 2, -0.5, 611, 2, -0.5
*EQUATION
3
2332, 3, 1.0, 594, 3, -0.5, 611, 3, -0.5
*EQUATION
3
2343, 1, 1.0, 587, 1, -0.5, 635, 1, -0.5
*EQUATION
3
2343, 2, 1.0, 587, 2, -0.5, 635, 2, -0.5
*EQUATION
3
2343, 3, 1.0, 587, 3, -0.5, 635, 3, -0.5
*EQUATION
3
2357, 1, 1.0, 594, 1, -0.5, 642, 1, -0.5
*EQUATION
3
2357, 2, 1.0, 594, 2, -0.5, 642, 2, -0.5
*EQUATION
3
2357, 3, 1.0, 594, 3, -0.5, 642, 3, -0.5
*EQUATION
5
2358, 1, 1.0, 587, 1, -0.25, 635, 1, -0.25, 655, 1, -0.25, 607, 1, -0.25
*EQUATION
5
2358, 2, 1.0, 587, 2, -0.25, 635, 2, -0.25, 655, 2, -0.25, 607, 2, -0.25
*EQUATION
5
2358, 3, 1.0, 587, 3, -0.25, 635, 3, -0.25, 655, 3, -0.25, 607, 3, -0.25
*EQUATION
3
2359, 1, 1.0, 607, 1, -0.5, 655, 1, -0.5
*EQUATION
3
2359, 2, 1.0, 607, 2, -0.5, 655, 2, -0.5
*EQUATION
3
2359, 3, 1.0, 607, 3, -0.5, 655, 3, -0.5
*EQUATION
5
2361, 1, 1.0, 607, 1, -0.25, 655, 1, -0.25, 657, 1, -0.25, 609, 1, -0.25
*EQUATION
5
2361, 2, 1.0, 607, 2, -0.25, 655, 2, -0.25, 657, 2, -0.25, 609, 2, -0.25
*EQUATION
5
2361, 3, 1.0, 607, 3, -0.25, 655, 3, -0.25, 657, 3, -0.25, 609, 3, -0.25
*EQUATION
3
2363, 1, 1.0, 609, 1, -0.5, 657, 1, -0.5
*EQUATION
3
2363, 2, 1.0, 609, 2, -0.5, 657, 2, -0.5
*EQUATION
3
2363, 3, 1.0, 609, 3, -0.5, 657, 3, -0.5
*EQUATION
3
2364, 1, 1.0, 635, 1, -0.5, 655, 1, -0.5
*EQUATION
3
2364, 2, 1.0, 635, 2, -0.5, 655, 2, -0.5
*EQUATION
3
2364, 3, 1.0, 635, 3, -0.5, 655, 3, -0.5
*EQUATION
5
2365, 1, 1.0, 635, 1, -0.25, 636, 1, -0.25, 657, 1, -0.25, 655, 1, -0.25
*EQUATION
5
2365, 2, 1.0, 635, 2, -0.25, 636, 2, -0.25, 657, 2, -0.25, 655, 2, -0.25
*EQUATION
5
2365, 3, 1.0, 635, 3, -0.25, 636, 3, -0.25, 657, 3, -0.25, 655, 3, -0.25
*EQUATION
3
2366, 1, 1.0, 655, 1, -0.5, 657, 1, -0.5
*EQUATION
3
2366, 2, 1.0, 655, 2, -0.5, 657, 2, -0.5
*EQUATION
3
2366, 3, 1.0, 655, 3, -0.5, 657, 3, -0.5
*EQUATION
3
2367, 1, 1.0, 636, 1, -0.5, 657, 1, -0.5
*EQUATION
3
2367, 2, 1.0, 636, 2, -0.5, 657, 2, -0.5
*EQUATION
3
2367, 3, 1.0, 636, 3, -0.5, 657, 3, -0.5
*EQUATION
5
2369, 1, 1.0, 609, 1, -0.25, 657, 1, -0.25, 659, 1, -0.25, 611, 1, -0.25
*EQUATION
5
2369, 2, 1.0, 609, 2, -0.25, 657, 2, -0.25, 659, 2, -0.25, 611, 2, -0.25
*EQUATION
5
2369, 3, 1.0, 609, 3, -0.25, 657, 3, -0.25, 659, 3, -0.25, 611, 3, -0.25
*EQUATION
5
2370, 1, 1.0, 594, 1, -0.25, 642, 1, -0.25, 659, 1, -0.25, 611, 1, -0.25
*EQUATION
5
2370, 2, 1.0, 594, 2, -0.25, 642, 2, -0.25, 659, 2, -0.25, 611, 2, -0.25
*EQUATION
5
2370, 3, 1.0, 594, 3, -0.25, 642, 3, -0.25, 659, 3, -0.25, 611, 3, -0.25
*EQUATION
3
2371, 1, 1.0, 611, 1, -0.5, 659, 1, -0.5
*EQUATION
3
2371, 2, 1.0, 611, 2, -0.5, 659, 2, -0.5
*EQUATION
3
2371, 3, 1.0, 611, 3, -0.5, 659, 3, -0.5
*EQUATION
5
2372, 1, 1.0, 636, 1, -0.25, 642, 1, -0.25, 659, 1, -0.25, 657, 1, -0.25
*EQUATION
5
2372, 2, 1.0, 636, 2, -0.25, 642, 2, -0.25, 659, 2, -0.25, 657, 2, -0.25
*EQUATION
5
2372, 3, 1.0, 636, 3, -0.25, 642, 3, -0.25, 659, 3, -0.25, 657, 3, -0.25
*EQUATION
3
2373, 1, 1.0, 657, 1, -0.5, 659, 1, -0.5
*EQUATION
3
2373, 2, 1.0, 657, 2, -0.5, 659, 2, -0.5
*EQUATION
3
2373, 3, 1.0, 657, 3, -0.5, 659, 3, -0.5
*EQUATION
3
2374, 1, 1.0, 642, 1, -0.5, 659, 1, -0.5
*EQUATION
3
2374, 2, 1.0, 642, 2, -0.5, 659, 2, -0.5
*EQUATION
3
2374, 3, 1.0, 642, 3, -0.5, 659, 3, -0.5
*EQUATION
3
2380, 1, 1.0, 683, 1, -0.5, 703, 1, -0.5
*EQUATION
3
2380, 2, 1.0, 683, 2, -0.5, 703, 2, -0.5
*EQUATION
3
2380, 3, 1.0, 683, 3, -0.5, 703, 3, -0.5
*EQUATION
5
2381, 1, 1.0, 683, 1, -0.25, 684, 1, -0.25, 705, 1, -0.25, 703, 1, -0.25
*EQUATION
5
2381, 2, 1.0, 683, 2, -0.25, 684, 2, -0.25, 705, 2, -0.25, 703, 2, -0.25
*EQUATION
5
2381, 3, 1.0, 683, 3, -0.25, 684, 3, -0.25, 705, 3, -0.25, 703, 3, -0.25
*EQUATION
3
2382, 1, 1.0, 703, 1, -0.5, 705, 1, -0.5
*EQUATION
3
2382, 2, 1.0, 703, 2, -0.5, 705, 2, -0.5
*EQUATION
3
2382, 3, 1.0, 703, 3, -0.5, 705, 3, -0.5
*EQUATION
3
2383, 1, 1.0, 684, 1, -0.5, 705, 1, -0.5
*EQUATION
3
2383, 2, 1.0, 684, 2, -0.5, 705, 2, -0.5
*EQUATION
3
2383, 3, 1.0, 684, 3, -0.5, 705, 3, -0.5
*EQUATION
5
2384, 1, 1.0, 683, 1, -0.25, 731, 1, -0.25, 751, 1, -0.25, 703, 1, -0.25
*EQUATION
5
2384, 2, 1.0, 683, 2, -0.25, 731, 2, -0.25, 751, 2, -0.25, 703, 2, -0.25
*EQUATION
5
2384, 3, 1.0, 683, 3, -0.25, 731, 3, -0.25, 751, 3, -0.25, 703, 3, -0.25
*EQUATION
3
2385, 1, 1.0, 703, 1, -0.5, 751, 1, -0.5
*EQUATION
3
2385, 2, 1.0, 703, 2, -0.5, 751, 2, -0.5
*EQUATION
3
2385, 3, 1.0, 703, 3, -0.5, 751, 3, -0.5
*EQUATION
5
2387, 1, 1.0, 703, 1, -0.25, 751, 1, -0.25, 753, 1, -0.25, 705, 1, -0.25
*EQUATION
5
2387, 2, 1.0, 703, 2, -0.25, 751, 2, -0.25, 753, 2, -0.25, 705, 2, -0.25
*EQUATION
5
2387, 3, 1.0, 703, 3, -0.25, 751, 3, -0.25, 753, 3, -0.25, 705, 3, -0.25
*EQUATION
3
2389, 1, 1.0, 705, 1, -0.5, 753, 1, -0.5
*EQUATION
3
2389, 2, 1.0, 705, 2, -0.5, 753, 2, -0.5
*EQUATION
3
2389, 3, 1.0, 705, 3, -0.5, 753, 3, -0.5
*EQUATION
3
2390, 1, 1.0, 731, 1, -0.5, 751, 1, -0.5
*EQUATION
3
2390, 2, 1.0, 731, 2, -0.5, 751, 2, -0.5
*EQUATION
3
2390, 3, 1.0, 731, 3, -0.5, 751, 3, -0.5
*EQUATION
5
2391, 1, 1.0, 731, 1, -0.25, 732, 1, -0.25, 753, 1, -0.25, 751, 1, -0.25
*EQUATION
5
2391, 2, 1.0, 731, 2, -0.25, 732, 2, -0.25, 753, 2, -0.25, 751, 2, -0.25
*EQUATION
5
2391, 3, 1.0, 731, 3, -0.25, 732, 3, -0.25, 753, 3, -0.25, 751, 3, -0.25
*EQUATION
3
2392, 1, 1.0, 751, 1, -0.5, 753, 1, -0.5
*EQUATION
3
2392, 2, 1.0, 751, 2, -0.5, 753, 2, -0.5
*EQUATION
3
2392, 3, 1.0, 751, 3, -0.5, 753, 3, -0.5
*EQUATION
3
2393, 1, 1.0, 732, 1, -0.5, 753, 1, -0.5
*EQUATION
3
2393, 2, 1.0, 732, 2, -0.5, 753, 2, -0.5
*EQUATION
3
2393, 3, 1.0, 732, 3, -0.5, 753, 3, -0.5
*EQUATION
5
2394, 1, 1.0, 684, 1, -0.25, 690, 1, -0.25, 707, 1, -0.25, 705, 1, -0.25
*EQUATION
5
2394, 2, 1.0, 684, 2, -0.25, 690, 2, -0.25, 707, 2, -0.25, 705, 2, -0.25
*EQUATION
5
2394, 3, 1.0, 684, 3, -0.25, 690, 3, -0.25, 707, 3, -0.25, 705, 3, -0.25
*EQUATION
3
2395, 1, 1.0, 705, 1, -0.5, 707, 1, -0.5
*EQUATION
3
2395, 2, 1.0, 705, 2, -0.5, 707, 2, -0.5
*EQUATION
3
2395, 3, 1.0, 705, 3, -0.5, 707, 3, -0.5
*EQUATION
3
2396, 1, 1.0, 690, 1, -0.5, 707, 1, -0.5
*EQUATION
3
2396, 2, 1.0, 690, 2, -0.5, 707, 2, -0.5
*EQUATION
3
2396, 3, 1.0, 690, 3, -0.5, 707, 3, -0.5
*EQUATION
5
2398, 1, 1.0, 705, 1, -0.25, 753, 1, -0.25, 755, 1, -0.25, 707, 1, -0.25
*EQUATION
5
2398, 2, 1.0, 705, 2, -0.25, 753, 2, -0.25, 755, 2, -0.25, 707, 2, -0.25
*EQUATION
5
2398, 3, 1.0, 705, 3, -0.25, 753, 3, -0.25, 755, 3, -0.25, 707, 3, -0.25
*EQUATION
5
2399, 1, 1.0, 690, 1, -0.25, 738, 1, -0.25, 755, 1, -0.25, 707, 1, -0.25
*EQUATION
5
2399, 2, 1.0, 690, 2, -0.25, 738, 2, -0.25, 755, 2, -0.25, 707, 2, -0.25
*EQUATION
5
2399, 3, 1.0, 690, 3, -0.25, 738, 3, -0.25, 755, 3, -0.25, 707, 3, -0.25
*EQUATION
3
2400, 1, 1.0, 707, 1, -0.5, 755, 1, -0.5
*EQUATION
3
2400, 2, 1.0, 707, 2, -0.5, 755, 2, -0.5
*EQUATION
3
2400, 3, 1.0, 707, 3, -0.5, 755, 3, -0.5
*EQUATION
5
2401, 1, 1.0, 732, 1, -0.25, 738, 1, -0.25, 755, 1, -0.25, 753, 1, -0.25
*EQUATION
5
2401, 2, 1.0, 732, 2, -0.25, 738, 2, -0.25, 755, 2, -0.25, 753, 2, -0.25
*EQUATION
5
2401, 3, 1.0, 732, 3, -0.25, 738, 3, -0.25, 755, 3, -0.25, 753, 3, -0.25
*EQUATION
3
2402, 1, 1.0, 753, 1, -0.5, 755, 1, -0.5
*EQUATION
3
2402, 2, 1.0, 753, 2, -0.5, 755, 2, -0.5
*EQUATION
3
2402, 3, 1.0, 753, 3, -0.5, 755, 3, -0.5
*EQUATION
3
2403, 1, 1.0, 738, 1, -0.5, 755, 1, -0.5
*EQUATION
3
2403, 2, 1.0, 738, 2, -0.5, 755, 2, -0.5
*EQUATION
3
2403, 3, 1.0, 738, 3, -0.5, 755, 3, -0.5
*EQUATION
3
2404, 1, 1.0, 817, 1, -0.5, 1075, 1, -0.5
*EQUATION
3
2404, 2, 1.0, 817, 2, -0.5, 1075, 2, -0.5
*EQUATION
3
2404, 3, 1.0, 817, 3, -0.5, 1075, 3, -0.5
*EQUATION
3
2405, 1, 1.0, 817, 1, -0.5, 1076, 1, -0.5
*EQUATION
3
2405, 2, 1.0, 817, 2, -0.5, 1076, 2, -0.5
*EQUATION
3
2405, 3, 1.0, 817, 3, -0.5, 1076, 3, -0.5
*EQUATION
5
2406, 1, 1.0, 817, 1, -0.25, 1076, 1, -0.25, 1077, 1, -0.25, 1075, 1, -0.25
*EQUATION
5
2406, 2, 1.0, 817, 2, -0.25, 1076, 2, -0.25, 1077, 2, -0.25, 1075, 2, -0.25
*EQUATION
5
2406, 3, 1.0, 817, 3, -0.25, 1076, 3, -0.25, 1077, 3, -0.25, 1075, 3, -0.25
*EQUATION
3
2407, 1, 1.0, 1075, 1, -0.5, 1077, 1, -0.5
*EQUATION
3
2407, 2, 1.0, 1075, 2, -0.5, 1077, 2, -0.5
*EQUATION
3
2407, 3, 1.0, 1075, 3, -0.5, 1077, 3, -0.5
*EQUATION
3
2408, 1, 1.0, 1076, 1, -0.5, 1077, 1, -0.5
*EQUATION
3
2408, 2, 1.0, 1076, 2, -0.5, 1077, 2, -0.5
*EQUATION
3
2408, 3, 1.0, 1076, 3, -0.5, 1077, 3, -0.5
*EQUATION
3
2411, 1, 1.0, 1075, 1, -0.5, 1091, 1, -0.5
*EQUATION
3
2411, 2, 1.0, 1075, 2, -0.5, 1091, 2, -0.5
*EQUATION
3
2411, 3, 1.0, 1075, 3, -0.5, 1091, 3, -0.5
*EQUATION
5
2414, 1, 1.0, 1075, 1, -0.25, 1091, 1, -0.25, 1094, 1, -0.25, 1077, 1, -0.25
*EQUATION
5
2414, 2, 1.0, 1075, 2, -0.25, 1091, 2, -0.25, 1094, 2, -0.25, 1077, 2, -0.25
*EQUATION
5
2414, 3, 1.0, 1075, 3, -0.25, 1091, 3, -0.25, 1094, 3, -0.25, 1077, 3, -0.25
*EQUATION
3
2417, 1, 1.0, 1077, 1, -0.5, 1094, 1, -0.5
*EQUATION
3
2417, 2, 1.0, 1077, 2, -0.5, 1094, 2, -0.5
*EQUATION
3
2417, 3, 1.0, 1077, 3, -0.5, 1094, 3, -0.5
*EQUATION
3
2421, 1, 1.0, 1091, 1, -0.5, 1094, 1, -0.5
*EQUATION
3
2421, 2, 1.0, 1091, 2, -0.5, 1094, 2, -0.5
*EQUATION
3
2421, 3, 1.0, 1091, 3, -0.5, 1094, 3, -0.5
*EQUATION
3
2423, 1, 1.0, 818, 1, -0.5, 1076, 1, -0.5
*EQUATION
3
2423, 2, 1.0, 818, 2, -0.5, 1076, 2, -0.5
*EQUATION
3
2423, 3, 1.0, 818, 3, -0.5, 1076, 3, -0.5
*EQUATION
5
2424, 1, 1.0, 1076, 1, -0.25, 818, 1, -0.25, 1079, 1, -0.25, 1077, 1, -0.25
*EQUATION
5
2424, 2, 1.0, 1076, 2, -0.25, 818, 2, -0.25, 1079, 2, -0.25, 1077, 2, -0.25
*EQUATION
5
2424, 3, 1.0, 1076, 3, -0.25, 818, 3, -0.25, 1079, 3, -0.25, 1077, 3, -0.25
*EQUATION
3
2425, 1, 1.0, 1077, 1, -0.5, 1079, 1, -0.5
*EQUATION
3
2425, 2, 1.0, 1077, 2, -0.5, 1079, 2, -0.5
*EQUATION
3
2425, 3, 1.0, 1077, 3, -0.5, 1079, 3, -0.5
*EQUATION
3
2426, 1, 1.0, 818, 1, -0.5, 1079, 1, -0.5
*EQUATION
3
2426, 2, 1.0, 818, 2, -0.5, 1079, 2, -0.5
*EQUATION
3
2426, 3, 1.0, 818, 3, -0.5, 1079, 3, -0.5
*EQUATION
5
2429, 1, 1.0, 1077, 1, -0.25, 1094, 1, -0.25, 1097, 1, -0.25, 1079, 1, -0.25
*EQUATION
5
2429, 2, 1.0, 1077, 2, -0.25, 1094, 2, -0.25, 1097, 2, -0.25, 1079, 2, -0.25
*EQUATION
5
2429, 3, 1.0, 1077, 3, -0.25, 1094, 3, -0.25, 1097, 3, -0.25, 1079, 3, -0.25
*EQUATION
3
2432, 1, 1.0, 1079, 1, -0.5, 1097, 1, -0.5
*EQUATION
3
2432, 2, 1.0, 1079, 2, -0.5, 1097, 2, -0.5
*EQUATION
3
2432, 3, 1.0, 1079, 3, -0.5, 1097, 3, -0.5
*EQUATION
3
2435, 1, 1.0, 1094, 1, -0.5, 1097, 1, -0.5
*EQUATION
3
2435, 2, 1.0, 1094, 2, -0.5, 1097, 2, -0.5
*EQUATION
3
2435, 3, 1.0, 1094, 3, -0.5, 1097, 3, -0.5
*EQUATION
3
2439, 1, 1.0, 1091, 1, -0.5, 1099, 1, -0.5
*EQUATION
3
2439, 2, 1.0, 1091, 2, -0.5, 1099, 2, -0.5
*EQUATION
3
2439, 3, 1.0, 1091, 3, -0.5, 1099, 3, -0.5
*EQUATION
5
2442, 1, 1.0, 1091, 1, -0.25, 1099, 1, -0.25, 1101, 1, -0.25, 1094, 1, -0.25
*EQUATION
5
2442, 2, 1.0, 1091, 2, -0.25, 1099, 2, -0.25, 1101, 2, -0.25, 1094, 2, -0.25
*EQUATION
5
2442, 3, 1.0, 1091, 3, -0.25, 1099, 3, -0.25, 1101, 3, -0.25, 1094, 3, -0.25
*EQUATION
3
2445, 1, 1.0, 1094, 1, -0.5, 1101, 1, -0.5
*EQUATION
3
2445, 2, 1.0, 1094, 2, -0.5, 1101, 2, -0.5
*EQUATION
3
2445, 3, 1.0, 1094, 3, -0.5, 1101, 3, -0.5
*EQUATION
3
2449, 1, 1.0, 1099, 1, -0.5, 1101, 1, -0.5
*EQUATION
3
2449, 2, 1.0, 1099, 2, -0.5, 1101, 2, -0.5
*EQUATION
3
2449, 3, 1.0, 1099, 3, -0.5, 1101, 3, -0.5
*EQUATION
5
2453, 1, 1.0, 1094, 1, -0.25, 1101, 1, -0.25, 1103, 1, -0.25, 1097, 1, -0.25
*EQUATION
5
2453, 2, 1.0, 1094, 2, -0.25, 1101, 2, -0.25, 1103, 2, -0.25, 1097, 2, -0.25
*EQUATION
5
2453, 3, 1.0, 1094, 3, -0.25, 1101, 3, -0.25, 1103, 3, -0.25, 1097, 3, -0.25
*EQUATION
3
2456, 1, 1.0, 1097, 1, -0.5, 1103, 1, -0.5
*EQUATION
3
2456, 2, 1.0, 1097, 2, -0.5, 1103, 2, -0.5
*EQUATION
3
2456, 3, 1.0, 1097, 3, -0.5, 1103, 3, -0.5
*EQUATION
3
2459, 1, 1.0, 1101, 1, -0.5, 1103, 1, -0.5
*EQUATION
3
2459, 2, 1.0, 1101, 2, -0.5, 1103, 2, -0.5
*EQUATION
3
2459, 3, 1.0, 1101, 3, -0.5, 1103, 3, -0.5
*EQUATION
3
2461, 1, 1.0, 818, 1, -0.5, 1086, 1, -0.5
*EQUATION
3
2461, 2, 1.0, 818, 2, -0.5, 1086, 2, -0.5
*EQUATION
3
2461, 3, 1.0, 818, 3, -0.5, 1086, 3, -0.5
*EQUATION
5
2462, 1, 1.0, 818, 1, -0.25, 1086, 1, -0.25, 1087, 1, -0.25, 1079, 1, -0.25
*EQUATION
5
2462, 2, 1.0, 818, 2, -0.25, 1086, 2, -0.25, 1087, 2, -0.25, 1079, 2, -0.25
*EQUATION
5
2462, 3, 1.0, 818, 3, -0.25, 1086, 3, -0.25, 1087, 3, -0.25, 1079, 3, -0.25
*EQUATION
3
2463, 1, 1.0, 1079, 1, -0.5, 1087, 1, -0.5
*EQUATION
3
2463, 2, 1.0, 1079, 2, -0.5, 1087, 2, -0.5
*EQUATION
3
2463, 3, 1.0, 1079, 3, -0.5, 1087, 3, -0.5
*EQUATION
3
2464, 1, 1.0, 1086, 1, -0.5, 1087, 1, -0.5
*EQUATION
3
2464, 2, 1.0, 1086, 2, -0.5, 1087, 2, -0.5
*EQUATION
3
2464, 3, 1.0, 1086, 3, -0.5, 1087, 3, -0.5
*EQUATION
5
2467, 1, 1.0, 1079, 1, -0.25, 1097, 1, -0.25, 1105, 1, -0.25, 1087, 1, -0.25
*EQUATION
5
2467, 2, 1.0, 1079, 2, -0.25, 1097, 2, -0.25, 1105, 2, -0.25, 1087, 2, -0.25
*EQUATION
5
2467, 3, 1.0, 1079, 3, -0.25, 1097, 3, -0.25, 1105, 3, -0.25, 1087, 3, -0.25
*EQUATION
3
2470, 1, 1.0, 1087, 1, -0.5, 1105, 1, -0.5
*EQUATION
3
2470, 2, 1.0, 1087, 2, -0.5, 1105, 2, -0.5
*EQUATION
3
2470, 3, 1.0, 1087, 3, -0.5, 1105, 3, -0.5
*EQUATION
3
2473, 1, 1.0, 1097, 1, -0.5, 1105, 1, -0.5
*EQUATION
3
2473, 2, 1.0, 1097, 2, -0.5, 1105, 2, -0.5
*EQUATION
3
2473, 3, 1.0, 1097, 3, -0.5, 1105, 3, -0.5
*EQUATION
3
2475, 1, 1.0, 829, 1, -0.5, 1086, 1, -0.5
*EQUATION
3
2475, 2, 1.0, 829, 2, -0.5, 1086, 2, -0.5
*EQUATION
3
2475, 3, 1.0, 829, 3, -0.5, 1086, 3, -0.5
*EQUATION
5
2476, 1, 1.0, 1086, 1, -0.25, 829, 1, -0.25, 1089, 1, -0.25, 1087, 1, -0.25
*EQUATION
5
2476, 2, 1.0, 1086, 2, -0.25, 829, 2, -0.25, 1089, 2, -0.25, 1087, 2, -0.25
*EQUATION
5
2476, 3, 1.0, 1086, 3, -0.25, 829, 3, -0.25, 1089, 3, -0.25, 1087, 3, -0.25
*EQUATION
3
2477, 1, 1.0, 1087, 1, -0.5, 1089, 1, -0.5
*EQUATION
3
2477, 2, 1.0, 1087, 2, -0.5, 1089, 2, -0.5
*EQUATION
3
2477, 3, 1.0, 1087, 3, -0.5, 1089, 3, -0.5
*EQUATION
3
2478, 1, 1.0, 829, 1, -0.5, 1089, 1, -0.5
*EQUATION
3
2478, 2, 1.0, 829, 2, -0.5, 1089, 2, -0.5
*EQUATION
3
2478, 3, 1.0, 829, 3, -0.5, 1089, 3, -0.5
*EQUATION
5
2481, 1, 1.0, 1087, 1, -0.25, 1105, 1, -0.25, 1108, 1, -0.25, 1089, 1, -0.25
*EQUATION
5
2481, 2, 1.0, 1087, 2, -0.25, 1105, 2, -0.25, 1108, 2, -0.25, 1089, 2, -0.25
*EQUATION
5
2481, 3, 1.0, 1087, 3, -0.25, 1105, 3, -0.25, 1108, 3, -0.25, 1089, 3, -0.25
*EQUATION
3
2484, 1, 1.0, 1089, 1, -0.5, 1108, 1, -0.5
*EQUATION
3
2484, 2, 1.0, 1089, 2, -0.5, 1108, 2, -0.5
*EQUATION
3
2484, 3, 1.0, 1089, 3, -0.5, 1108, 3, -0.5
*EQUATION
3
2487, 1, 1.0, 1105, 1, -0.5, 1108, 1, -0.5
*EQUATION
3
2487, 2, 1.0, 1105, 2, -0.5, 1108, 2, -0.5
*EQUATION
3
2487, 3, 1.0, 1105, 3, -0.5, 1108, 3, -0.5
*EQUATION
5
2491, 1, 1.0, 1097, 1, -0.25, 1103, 1, -0.25, 1111, 1, -0.25, 1105, 1, -0.25
*EQUATION
5
2491, 2, 1.0, 1097, 2, -0.25, 1103, 2, -0.25, 1111, 2, -0.25, 1105, 2, -0.25
*EQUATION
5
2491, 3, 1.0, 1097, 3, -0.25, 1103, 3, -0.25, 1111, 3, -0.25, 1105, 3, -0.25
*EQUATION
3
2494, 1, 1.0, 1105, 1, -0.5, 1111, 1, -0.5
*EQUATION
3
2494, 2, 1.0, 1105, 2, -0.5, 1111, 2, -0.5
*EQUATION
3
2494, 3, 1.0, 1105, 3, -0.5, 1111, 3, -0.5
*EQUATION
3
2497, 1, 1.0, 1103, 1, -0.5, 1111, 1, -0.5
*EQUATION
3
2497, 2, 1.0, 1103, 2, -0.5, 1111, 2, -0.5
*EQUATION
3
2497, 3, 1.0, 1103, 3, -0.5, 1111, 3, -0.5
*EQUATION
5
2501, 1, 1.0, 1105, 1, -0.25, 1111, 1, -0.25, 1113, 1, -0.25, 1108, 1, -0.25
*EQUATION
5
2501, 2, 1.0, 1105, 2, -0.25, 1111, 2, -0.25, 1113, 2, -0.25, 1108, 2, -0.25
*EQUATION
5
2501, 3, 1.0, 1105, 3, -0.25, 1111, 3, -0.25, 1113, 3, -0.25, 1108, 3, -0.25
*EQUATION
3
2504, 1, 1.0, 1108, 1, -0.5, 1113, 1, -0.5
*EQUATION
3
2504, 2, 1.0, 1108, 2, -0.5, 1113, 2, -0.5
*EQUATION
3
2504, 3, 1.0, 1108, 3, -0.5, 1113, 3, -0.5
*EQUATION
3
2507, 1, 1.0, 1111, 1, -0.5, 1113, 1, -0.5
*EQUATION
3
2507, 2, 1.0, 1111, 2, -0.5, 1113, 2, -0.5
*EQUATION
3
2507, 3, 1.0, 1111, 3, -0.5, 1113, 3, -0.5
*EQUATION
3
2509, 1, 1.0, 844, 1, -0.5, 845, 1, -0.5
*EQUATION
3
2509, 2, 1.0, 844, 2, -0.5, 845, 2, -0.5
*EQUATION
3
2509, 3, 1.0, 844, 3, -0.5, 845, 3, -0.5
*EQUATION
3
2510, 1, 1.0, 827, 1, -0.5, 844, 1, -0.5
*EQUATION
3
2510, 2, 1.0, 827, 2, -0.5, 844, 2, -0.5
*EQUATION
3
2510, 3, 1.0, 827, 3, -0.5, 844, 3, -0.5
*EQUATION
5
2511, 1, 1.0, 844, 1, -0.25, 827, 1, -0.25, 847, 1, -0.25, 845, 1, -0.25
*EQUATION
5
2511, 2, 1.0, 844, 2, -0.25, 827, 2, -0.25, 847, 2, -0.25, 845, 2, -0.25
*EQUATION
5
2511, 3, 1.0, 844, 3, -0.25, 827, 3, -0.25, 847, 3, -0.25, 845, 3, -0.25
*EQUATION
3
2512, 1, 1.0, 845, 1, -0.5, 847, 1, -0.5
*EQUATION
3
2512, 2, 1.0, 845, 2, -0.5, 847, 2, -0.5
*EQUATION
3
2512, 3, 1.0, 845, 3, -0.5, 847, 3, -0.5
*EQUATION
3
2513, 1, 1.0, 827, 1, -0.5, 847, 1, -0.5
*EQUATION
3
2513, 2, 1.0, 827, 2, -0.5, 847, 2, -0.5
*EQUATION
3
2513, 3, 1.0, 827, 3, -0.5, 847, 3, -0.5
*EQUATION
3
2514, 1, 1.0, 844, 1, -0.5, 892, 1, -0.5
*EQUATION
3
2514, 2, 1.0, 844, 2, -0.5, 892, 2, -0.5
*EQUATION
3
2514, 3, 1.0, 844, 3, -0.5, 892, 3, -0.5
*EQUATION
5
2515, 1, 1.0, 844, 1, -0.25, 892, 1, -0.25, 893, 1, -0.25, 845, 1, -0.25
*EQUATION
5
2515, 2, 1.0, 844, 2, -0.25, 892, 2, -0.25, 893, 2, -0.25, 845, 2, -0.25
*EQUATION
5
2515, 3, 1.0, 844, 3, -0.25, 892, 3, -0.25, 893, 3, -0.25, 845, 3, -0.25
*EQUATION
3
2516, 1, 1.0, 845, 1, -0.5, 893, 1, -0.5
*EQUATION
3
2516, 2, 1.0, 845, 2, -0.5, 893, 2, -0.5
*EQUATION
3
2516, 3, 1.0, 845, 3, -0.5, 893, 3, -0.5
*EQUATION
3
2522, 1, 1.0, 892, 1, -0.5, 893, 1, -0.5
*EQUATION
3
2522, 2, 1.0, 892, 2, -0.5, 893, 2, -0.5
*EQUATION
3
2522, 3, 1.0, 892, 3, -0.5, 893, 3, -0.5
*EQUATION
3
2527, 1, 1.0, 845, 1, -0.5, 846, 1, -0.5
*EQUATION
3
2527, 2, 1.0, 845, 2, -0.5, 846, 2, -0.5
*EQUATION
3
2527, 3, 1.0, 845, 3, -0.5, 846, 3, -0.5
*EQUATION
5
2528, 1, 1.0, 845, 1, -0.25, 847, 1, -0.25, 848, 1, -0.25, 846, 1, -0.25
*EQUATION
5
2528, 2, 1.0, 845, 2, -0.25, 847, 2, -0.25, 848, 2, -0.25, 846, 2, -0.25
*EQUATION
5
2528, 3, 1.0, 845, 3, -0.25, 847, 3, -0.25, 848, 3, -0.25, 846, 3, -0.25
*EQUATION
3
2529, 1, 1.0, 846, 1, -0.5, 848, 1, -0.5
*EQUATION
3
2529, 2, 1.0, 846, 2, -0.5, 848, 2, -0.5
*EQUATION
3
2529, 3, 1.0, 846, 3, -0.5, 848, 3, -0.5
*EQUATION
3
2530, 1, 1.0, 847, 1, -0.5, 848, 1, -0.5
*EQUATION
3
2530, 2, 1.0, 847, 2, -0.5, 848, 2, -0.5
*EQUATION
3
2530, 3, 1.0, 847, 3, -0.5, 848, 3, -0.5
*EQUATION
5
2531, 1, 1.0, 845, 1, -0.25, 893, 1, -0.25, 894, 1, -0.25, 846, 1, -0.25
*EQUATION
5
2531, 2, 1.0, 845, 2, -0.25, 893, 2, -0.25, 894, 2, -0.25, 846, 2, -0.25
*EQUATION
5
2531, 3, 1.0, 845, 3, -0.25, 893, 3, -0.25, 894, 3, -0.25, 846, 3, -0.25
*EQUATION
3
2532, 1, 1.0, 846, 1, -0.5, 894, 1, -0.5
*EQUATION
3
2532, 2, 1.0, 846, 2, -0.5, 894, 2, -0.5
*EQUATION
3
2532, 3, 1.0, 846, 3, -0.5, 894, 3, -0.5
*EQUATION
3
2537, 1, 1.0, 893, 1, -0.5, 894, 1, -0.5
*EQUATION
3
2537, 2, 1.0, 893, 2, -0.5, 894, 2, -0.5
*EQUATION
3
2537, 3, 1.0, 893, 3, -0.5, 894, 3, -0.5
*EQUATION
5
2541, 1, 1.0, 827, 1, -0.25, 828, 1, -0.25, 849, 1, -0.25, 847, 1, -0.25
*EQUATION
5
2541, 2, 1.0, 827, 2, -0.25, 828, 2, -0.25, 849, 2, -0.25, 847, 2, -0.25
*EQUATION
5
2541, 3, 1.0, 827, 3, -0.25, 828, 3, -0.25, 849, 3, -0.25, 847, 3, -0.25
*EQUATION
3
2542, 1, 1.0, 847, 1, -0.5, 849, 1, -0.5
*EQUATION
3
2542, 2, 1.0, 847, 2, -0.5, 849, 2, -0.5
*EQUATION
3
2542, 3, 1.0, 847, 3, -0.5, 849, 3, -0.5
*EQUATION
3
2543, 1, 1.0, 828, 1, -0.5, 849, 1, -0.5
*EQUATION
3
2543, 2, 1.0, 828, 2, -0.5, 849, 2, -0.5
*EQUATION
3
2543, 3, 1.0, 828, 3, -0.5, 849, 3, -0.5
*EQUATION
5
2551, 1, 1.0, 847, 1, -0.25, 849, 1, -0.25, 850, 1, -0.25, 848, 1, -0.25
*EQUATION
5
2551, 2, 1.0, 847, 2, -0.25, 849, 2, -0.25, 850, 2, -0.25, 848, 2, -0.25
*EQUATION
5
2551, 3, 1.0, 847, 3, -0.25, 849, 3, -0.25, 850, 3, -0.25, 848, 3, -0.25
*EQUATION
3
2552, 1, 1.0, 848, 1, -0.5, 850, 1, -0.5
*EQUATION
3
2552, 2, 1.0, 848, 2, -0.5, 850, 2, -0.5
*EQUATION
3
2552, 3, 1.0, 848, 3, -0.5, 850, 3, -0.5
*EQUATION
3
2553, 1, 1.0, 849, 1, -0.5, 850, 1, -0.5
*EQUATION
3
2553, 2, 1.0, 849, 2, -0.5, 850, 2, -0.5
*EQUATION
3
2553, 3, 1.0, 849, 3, -0.5, 850, 3, -0.5
*EQUATION
5
2561, 1, 1.0, 828, 1, -0.25, 834, 1, -0.25, 851, 1, -0.25, 849, 1, -0.25
*EQUATION
5
2561, 2, 1.0, 828, 2, -0.25, 834, 2, -0.25, 851, 2, -0.25, 849, 2, -0.25
*EQUATION
5
2561, 3, 1.0, 828, 3, -0.25, 834, 3, -0.25, 851, 3, -0.25, 849, 3, -0.25
*EQUATION
3
2562, 1, 1.0, 849, 1, -0.5, 851, 1, -0.5
*EQUATION
3
2562, 2, 1.0, 849, 2, -0.5, 851, 2, -0.5
*EQUATION
3
2562, 3, 1.0, 849, 3, -0.5, 851, 3, -0.5
*EQUATION
3
2563, 1, 1.0, 834, 1, -0.5, 851, 1, -0.5
*EQUATION
3
2563, 2, 1.0, 834, 2, -0.5, 851, 2, -0.5
*EQUATION
3
2563, 3, 1.0, 834, 3, -0.5, 851, 3, -0.5
*EQUATION
5
2571, 1, 1.0, 849, 1, -0.25, 851, 1, -0.25, 852, 1, -0.25, 850, 1, -0.25
*EQUATION
5
2571, 2, 1.0, 849, 2, -0.25, 851, 2, -0.25, 852, 2, -0.25, 850, 2, -0.25
*EQUATION
5
2571, 3, 1.0, 849, 3, -0.25, 851, 3, -0.25, 852, 3, -0.25, 850, 3, -0.25
*EQUATION
3
2572, 1, 1.0, 850, 1, -0.5, 852, 1, -0.5
*EQUATION
3
2572, 2, 1.0, 850, 2, -0.5, 852, 2, -0.5
*EQUATION
3
2572, 3, 1.0, 850, 3, -0.5, 852, 3, -0.5
*EQUATION
3
2573, 1, 1.0, 851, 1, -0.5, 852, 1, -0.5
*EQUATION
3
2573, 2, 1.0, 851, 2, -0.5, 852, 2, -0.5
*EQUATION
3
2573, 3, 1.0, 851, 3, -0.5, 852, 3, -0.5
*EQUATION
3
2581, 1, 1.0, 834, 1, -0.5, 853, 1, -0.5
*EQUATION
3
2581, 2, 1.0, 834, 2, -0.5, 853, 2, -0.5
*EQUATION
3
2581, 3, 1.0, 834, 3, -0.5, 853, 3, -0.5
*EQUATION
5
2582, 1, 1.0, 834, 1, -0.25, 853, 1, -0.25, 854, 1, -0.25, 851, 1, -0.25
*EQUATION
5
2582, 2, 1.0, 834, 2, -0.25, 853, 2, -0.25, 854, 2, -0.25, 851, 2, -0.25
*EQUATION
5
2582, 3, 1.0, 834, 3, -0.25, 853, 3, -0.25, 854, 3, -0.25, 851, 3, -0.25
*EQUATION
3
2583, 1, 1.0, 851, 1, -0.5, 854, 1, -0.5
*EQUATION
3
2583, 2, 1.0, 851, 2, -0.5, 854, 2, -0.5
*EQUATION
3
2583, 3, 1.0, 851, 3, -0.5, 854, 3, -0.5
*EQUATION
3
2584, 1, 1.0, 853, 1, -0.5, 854, 1, -0.5
*EQUATION
3
2584, 2, 1.0, 853, 2, -0.5, 854, 2, -0.5
*EQUATION
3
2584, 3, 1.0, 853, 3, -0.5, 854, 3, -0.5
*EQUATION
3
2588, 1, 1.0, 853, 1, -0.5, 901, 1, -0.5
*EQUATION
3
2588, 2, 1.0, 853, 2, -0.5, 901, 2, -0.5
*EQUATION
3
2588, 3, 1.0, 853, 3, -0.5, 901, 3, -0.5
*EQUATION
5
2589, 1, 1.0, 853, 1, -0.25, 901, 1, -0.25, 902, 1, -0.25, 854, 1, -0.25
*EQUATION
5
2589, 2, 1.0, 853, 2, -0.25, 901, 2, -0.25, 902, 2, -0.25, 854, 2, -0.25
*EQUATION
5
2589, 3, 1.0, 853, 3, -0.25, 901, 3, -0.25, 902, 3, -0.25, 854, 3, -0.25
*EQUATION
3
2590, 1, 1.0, 854, 1, -0.5, 902, 1, -0.5
*EQUATION
3
2590, 2, 1.0, 854, 2, -0.5, 902, 2, -0.5
*EQUATION
3
2590, 3, 1.0, 854, 3, -0.5, 902, 3, -0.5
*EQUATION
3
2594, 1, 1.0, 901, 1, -0.5, 902, 1, -0.5
*EQUATION
3
2594, 2, 1.0, 901, 2, -0.5, 902, 2, -0.5
*EQUATION
3
2594, 3, 1.0, 901, 3, -0.5, 902, 3, -0.5
*EQUATION
5
2595, 1, 1.0, 851, 1, -0.25, 854, 1, -0.25, 855, 1, -0.25, 852, 1, -0.25
*EQUATION
5
2595, 2, 1.0, 851, 2, -0.25, 854, 2, -0.25, 855, 2, -0.25, 852, 2, -0.25
*EQUATION
5
2595, 3, 1.0, 851, 3, -0.25, 854, 3, -0.25, 855, 3, -0.25, 852, 3, -0.25
*EQUATION
3
2596, 1, 1.0, 852, 1, -0.5, 855, 1, -0.5
*EQUATION
3
2596, 2, 1.0, 852, 2, -0.5, 855, 2, -0.5
*EQUATION
3
2596, 3, 1.0, 852, 3, -0.5, 855, 3, -0.5
*EQUATION
3
2597, 1, 1.0, 854, 1, -0.5, 855, 1, -0.5
*EQUATION
3
2597, 2, 1.0, 854, 2, -0.5, 855, 2, -0.5
*EQUATION
3
2597, 3, 1.0, 854, 3, -0.5, 855, 3, -0.5
*EQUATION
5
2600, 1, 1.0, 854, 1, -0.25, 902, 1, -0.25, 903, 1, -0.25, 855, 1, -0.25
*EQUATION
5
2600, 2, 1.0, 854, 2, -0.25, 902, 2, -0.25, 903, 2, -0.25, 855, 2, -0.25
*EQUATION
5
2600, 3, 1.0, 854, 3, -0.25, 902, 3, -0.25, 903, 3, -0.25, 855, 3, -0.25
*EQUATION
3
2601, 1, 1.0, 855, 1, -0.5, 903, 1, -0.5
*EQUATION
3
2601, 2, 1.0, 855, 2, -0.5, 903, 2, -0.5
*EQUATION
3
2601, 3, 1.0, 855, 3, -0.5, 903, 3, -0.5
*EQUATION
3
2604, 1, 1.0, 902, 1, -0.5, 903, 1, -0.5
*EQUATION
3
2604, 2, 1.0, 902, 2, -0.5, 903, 2, -0.5
*EQUATION
3
2604, 3, 1.0, 902, 3, -0.5, 903, 3, -0.5
*BOUNDARY
CLAMP, 1, 3, 0.0
*STEP
*STATIC
*CLOAD
887, 3, -333.333333333
888, 3, -333.333333333
891, 3, -333.333333333
894, 3, -333.333333333
896, 3, -333.333333333
898, 3, -333.333333333
900, 3, -333.333333333
903, 3, -333.333333333
906, 3, -333.333333333
909, 3, -333.333333333
912, 3, -333.333333333
2539, 3, -333.333333333
2559, 3, -333.333333333
2579, 3, -333.333333333
2603, 3, -333.333333333
*NODE FILE
U
*EL FILE
S, ENER
*NODE PRINT, NSET=TIP_TOP
U
*NODE PRINT, NSET=CLAMP
RF
*EL PRINT, ELSET=EALL
ELSE
*ENERGY PRINT
*END STEP
