*HEADING
T04 S-LIN hanging 8-split zz cycle 1
units: mm, N, s, MPa. Material is illustrative steel, not a coupon card.
E=210000.0 nu=0.3. load -5000.0 N on TIP_TOP.
*NODE, NSET=NALL
1, 0, -10, 0
2, 111.111111111, -10, 0
3, 111.111111111, 0, 0
4, 0, 0, 0
5, 0, -10, 18
6, 111.111111111, -10, 22.5148526193
7, 111.111111111, 0, 22.5148526193
8, 0, 0, 18
9, 0, -10, 36
10, 111.111111111, -10, 45.0297052387
11, 111.111111111, 0, 45.0297052387
12, 0, 0, 36
13, 0, -10, 54
14, 111.111111111, -10, 67.544557858
15, 111.111111111, 0, 67.544557858
16, 0, 0, 54
17, 0, -10, 72
18, 111.111111111, -10, 90.0594104774
19, 111.111111111, 0, 90.0594104774
20, 0, 0, 72
** ... 1239 like lines cut
*ELEMENT, TYPE=C3D8, ELSET=EALL
1, 1, 2, 3, 4, 5, 6, 7, 8
2, 5, 6, 7, 8, 9, 10, 11, 12
3, 9, 10, 11, 12, 13, 14, 15, 16
4, 13, 14, 15, 16, 17, 18, 19, 20
5, 17, 18, 19, 20, 21, 22, 23, 24
6, 4, 3, 25, 26, 8, 7, 27, 28
7, 8, 7, 27, 28, 12, 11, 29, 30
8, 12, 11, 29, 30, 16, 15, 31, 32
9, 16, 15, 31, 32, 20, 19, 33, 34
10, 20, 19, 33, 34, 24, 23, 35, 36
11, 37, 38, 39, 40, 41, 42, 43, 44
12, 41, 42, 43, 44, 45, 46, 47, 48
13, 40, 39, 49, 50, 44, 43, 51, 52
14, 44, 43, 51, 52, 48, 47, 53, 54
15, 50, 49, 55, 56, 52, 51, 57, 58
16, 52, 51, 57, 58, 54, 53, 59, 60
17, 56, 55, 22, 21, 58, 57, 61, 62
18, 58, 57, 61, 62, 60, 59, 63, 64
19, 21, 22, 23, 24, 62, 61, 65, 66
20, 62, 61, 65, 66, 64, 63, 67, 68
** ... 730 like lines cut
*NSET, NSET=CLAMP
1, 4, 5, 8, 9, 12, 13, 16, 17, 20, 21, 24, 26, 28, 30, 32
34, 36, 37, 40, 41, 44, 45, 48, 50, 52, 54, 56, 58, 60, 62, 64
66, 68, 70, 72, 74, 76, 78, 80, 82, 84, 86, 88, 90, 92, 94, 96
*NSET, NSET=TIP_TOP
887, 888, 891, 894, 896, 898, 900, 903, 906, 909, 912
*MATERIAL, NAME=STEEL
*ELASTIC
210000, 0.3
*SOLID SECTION, ELSET=EALL, MATERIAL=STEEL
*EQUATION
3
913, 1, 1.0, 155, 1, -0.5, 175, 1, -0.5
*EQUATION
3
913, 2, 1.0, 155, 2, -0.5, 175, 2, -0.5
*EQUATION
3
913, 3, 1.0, 155, 3, -0.5, 175, 3, -0.5
*EQUATION
3
914, 1, 1.0, 155, 1, -0.5, 156, 1, -0.5
*EQUATION
3
914, 2, 1.0, 155, 2, -0.5, 156, 2, -0.5
*EQUATION
3
914, 3, 1.0, 155, 3, -0.5, 156, 3, -0.5
*EQUATION
5
915, 1, 1.0, 155, 1, -0.25, 156, 1, -0.25, 177, 1, -0.25, 175, 1, -0.25
*EQUATION
5
915, 2, 1.0, 155, 2, -0.25, 156, 2, -0.25, 177, 2, -0.25, 175, 2, -0.25
*EQUATION
5
915, 3, 1.0, 155, 3, -0.25, 156, 3, -0.25, 177, 3, -0.25, 175, 3, -0.25
*EQUATION
3
916, 1, 1.0, 175, 1, -0.5, 177, 1, -0.5
*EQUATION
3
916, 2, 1.0, 175, 2, -0.5, 177, 2, -0.5
*EQUATION
3
916, 3, 1.0, 175, 3, -0.5, 177, 3, -0.5
*EQUATION
3
917, 1, 1.0, 156, 1, -0.5, 177, 1, -0.5
*EQUATION
3
917, 2, 1.0, 156, 2, -0.5, 177, 2, -0.5
*EQUATION
3
917, 3, 1.0, 156, 3, -0.5, 177, 3, -0.5
*EQUATION
3
918, 1, 1.0, 155, 1, -0.5, 203, 1, -0.5
*EQUATION
3
918, 2, 1.0, 155, 2, -0.5, 203, 2, -0.5
*EQUATION
3
918, 3, 1.0, 155, 3, -0.5, 203, 3, -0.5
*EQUATION
5
919, 1, 1.0, 155, 1, -0.25, 203, 1, -0.25, 223, 1, -0.25, 175, 1, -0.25
*EQUATION
5
919, 2, 1.0, 155, 2, -0.25, 203, 2, -0.25, 223, 2, -0.25, 175, 2, -0.25
*EQUATION
5
919, 3, 1.0, 155, 3, -0.25, 203, 3, -0.25, 223, 3, -0.25, 175, 3, -0.25
*EQUATION
3
920, 1, 1.0, 175, 1, -0.5, 223, 1, -0.5
*EQUATION
3
920, 2, 1.0, 175, 2, -0.5, 223, 2, -0.5
*EQUATION
3
920, 3, 1.0, 175, 3, -0.5, 223, 3, -0.5
*EQUATION
5
921, 1, 1.0, 155, 1, -0.25, 203, 1, -0.25, 204, 1, -0.25, 156, 1, -0.25
*EQUATION
5
921, 2, 1.0, 155, 2, -0.25, 203, 2, -0.25, 204, 2, -0.25, 156, 2, -0.25
*EQUATION
5
921, 3, 1.0, 155, 3, -0.25, 203, 3, -0.25, 204, 3, -0.25, 156, 3, -0.25
*EQUATION
5
923, 1, 1.0, 175, 1, -0.25, 223, 1, -0.25, 225, 1, -0.25, 177, 1, -0.25
*EQUATION
5
923, 2, 1.0, 175, 2, -0.25, 223, 2, -0.25, 225, 2, -0.25, 177, 2, -0.25
*EQUATION
5
923, 3, 1.0, 175, 3, -0.25, 223, 3, -0.25, 225, 3, -0.25, 177, 3, -0.25
*EQUATION
3
924, 1, 1.0, 156, 1, -0.5, 204, 1, -0.5
*EQUATION
3
924, 2, 1.0, 156, 2, -0.5, 204, 2, -0.5
*EQUATION
3
924, 3, 1.0, 156, 3, -0.5, 204, 3, -0.5
*EQUATION
3
926, 1, 1.0, 177, 1, -0.5, 225, 1, -0.5
*EQUATION
3
926, 2, 1.0, 177, 2, -0.5, 225, 2, -0.5
*EQUATION
3
926, 3, 1.0, 177, 3, -0.5, 225, 3, -0.5
*EQUATION
3
927, 1, 1.0, 203, 1, -0.5, 223, 1, -0.5
*EQUATION
3
927, 2, 1.0, 203, 2, -0.5, 223, 2, -0.5
*EQUATION
3
927, 3, 1.0, 203, 3, -0.5, 223, 3, -0.5
*EQUATION
3
928, 1, 1.0, 203, 1, -0.5, 204, 1, -0.5
*EQUATION
3
928, 2, 1.0, 203, 2, -0.5, 204, 2, -0.5
*EQUATION
3
928, 3, 1.0, 203, 3, -0.5, 204, 3, -0.5
*EQUATION
3
930, 1, 1.0, 223, 1, -0.5, 225, 1, -0.5
*EQUATION
3
930, 2, 1.0, 223, 2, -0.5, 225, 2, -0.5
*EQUATION
3
930, 3, 1.0, 223, 3, -0.5, 225, 3, -0.5
*EQUATION
3
932, 1, 1.0, 156, 1, -0.5, 162, 1, -0.5
*EQUATION
3
932, 2, 1.0, 156, 2, -0.5, 162, 2, -0.5
*EQUATION
3
932, 3, 1.0, 156, 3, -0.5, 162, 3, -0.5
*EQUATION
5
933, 1, 1.0, 156, 1, -0.25, 162, 1, -0.25, 179, 1, -0.25, 177, 1, -0.25
*EQUATION
5
933, 2, 1.0, 156, 2, -0.25, 162, 2, -0.25, 179, 2, -0.25, 177, 2, -0.25
*EQUATION
5
933, 3, 1.0, 156, 3, -0.25, 162, 3, -0.25, 179, 3, -0.25, 177, 3, -0.25
*EQUATION
3
934, 1, 1.0, 177, 1, -0.5, 179, 1, -0.5
*EQUATION
3
934, 2, 1.0, 177, 2, -0.5, 179, 2, -0.5
*EQUATION
3
934, 3, 1.0, 177, 3, -0.5, 179, 3, -0.5
*EQUATION
3
935, 1, 1.0, 162, 1, -0.5, 179, 1, -0.5
*EQUATION
3
935, 2, 1.0, 162, 2, -0.5, 179, 2, -0.5
*EQUATION
3
935, 3, 1.0, 162, 3, -0.5, 179, 3, -0.5
*EQUATION
5
936, 1, 1.0, 156, 1, -0.25, 204, 1, -0.25, 210, 1, -0.25, 162, 1, -0.25
*EQUATION
5
936, 2, 1.0, 156, 2, -0.25, 204, 2, -0.25, 210, 2, -0.25, 162, 2, -0.25
*EQUATION
5
936, 3, 1.0, 156, 3, -0.25, 204, 3, -0.25, 210, 3, -0.25, 162, 3, -0.25
*EQUATION
5
938, 1, 1.0, 177, 1, -0.25, 225, 1, -0.25, 227, 1, -0.25, 179, 1, -0.25
*EQUATION
5
938, 2, 1.0, 177, 2, -0.25, 225, 2, -0.25, 227, 2, -0.25, 179, 2, -0.25
*EQUATION
5
938, 3, 1.0, 177, 3, -0.25, 225, 3, -0.25, 227, 3, -0.25, 179, 3, -0.25
*EQUATION
3
939, 1, 1.0, 162, 1, -0.5, 210, 1, -0.5
*EQUATION
3
939, 2, 1.0, 162, 2, -0.5, 210, 2, -0.5
*EQUATION
3
939, 3, 1.0, 162, 3, -0.5, 210, 3, -0.5
*EQUATION
5
940, 1, 1.0, 162, 1, -0.25, 210, 1, -0.25, 227, 1, -0.25, 179, 1, -0.25
*EQUATION
5
940, 2, 1.0, 162, 2, -0.25, 210, 2, -0.25, 227, 2, -0.25, 179, 2, -0.25
*EQUATION
5
940, 3, 1.0, 162, 3, -0.25, 210, 3, -0.25, 227, 3, -0.25, 179, 3, -0.25
*EQUATION
3
941, 1, 1.0, 179, 1, -0.5, 227, 1, -0.5
*EQUATION
3
941, 2, 1.0, 179, 2, -0.5, 227, 2, -0.5
*EQUATION
3
941, 3, 1.0, 179, 3, -0.5, 227, 3, -0.5
*EQUATION
3
942, 1, 1.0, 204, 1, -0.5, 210, 1, -0.5
*EQUATION
3
942, 2, 1.0, 204, 2, -0.5, 210, 2, -0.5
*EQUATION
3
942, 3, 1.0, 204, 3, -0.5, 210, 3, -0.5
*EQUATION
3
944, 1, 1.0, 225, 1, -0.5, 227, 1, -0.5
*EQUATION
3
944, 2, 1.0, 225, 2, -0.5, 227, 2, -0.5
*EQUATION
3
944, 3, 1.0, 225, 3, -0.5, 227, 3, -0.5
*EQUATION
3
945, 1, 1.0, 210, 1, -0.5, 227, 1, -0.5
*EQUATION
3
945, 2, 1.0, 210, 2, -0.5, 227, 2, -0.5
*EQUATION
3
945, 3, 1.0, 210, 3, -0.5, 227, 3, -0.5
*EQUATION
3
946, 1, 1.0, 203, 1, -0.5, 251, 1, -0.5
*EQUATION
3
946, 2, 1.0, 203, 2, -0.5, 251, 2, -0.5
*EQUATION
3
946, 3, 1.0, 203, 3, -0.5, 251, 3, -0.5
*EQUATION
5
947, 1, 1.0, 203, 1, -0.25, 251, 1, -0.25, 271, 1, -0.25, 223, 1, -0.25
*EQUATION
5
947, 2, 1.0, 203, 2, -0.25, 251, 2, -0.25, 271, 2, -0.25, 223, 2, -0.25
*EQUATION
5
947, 3, 1.0, 203, 3, -0.25, 251, 3, -0.25, 271, 3, -0.25, 223, 3, -0.25
*EQUATION
3
948, 1, 1.0, 223, 1, -0.5, 271, 1, -0.5
*EQUATION
3
948, 2, 1.0, 223, 2, -0.5, 271, 2, -0.5
*EQUATION
3
948, 3, 1.0, 223, 3, -0.5, 271, 3, -0.5
*EQUATION
5
949, 1, 1.0, 203, 1, -0.25, 251, 1, -0.25, 252, 1, -0.25, 204, 1, -0.25
*EQUATION
5
949, 2, 1.0, 203, 2, -0.25, 251, 2, -0.25, 252, 2, -0.25, 204, 2, -0.25
*EQUATION
5
949, 3, 1.0, 203, 3, -0.25, 251, 3, -0.25, 252, 3, -0.25, 204, 3, -0.25
*EQUATION
5
951, 1, 1.0, 223, 1, -0.25, 271, 1, -0.25, 273, 1, -0.25, 225, 1, -0.25
*EQUATION
5
951, 2, 1.0, 223, 2, -0.25, 271, 2, -0.25, 273, 2, -0.25, 225, 2, -0.25
*EQUATION
5
951, 3, 1.0, 223, 3, -0.25, 271, 3, -0.25, 273, 3, -0.25, 225, 3, -0.25
*EQUATION
3
952, 1, 1.0, 204, 1, -0.5, 252, 1, -0.5
*EQUATION
3
952, 2, 1.0, 204, 2, -0.5, 252, 2, -0.5
*EQUATION
3
952, 3, 1.0, 204, 3, -0.5, 252, 3, -0.5
*EQUATION
3
954, 1, 1.0, 225, 1, -0.5, 273, 1, -0.5
*EQUATION
3
954, 2, 1.0, 225, 2, -0.5, 273, 2, -0.5
*EQUATION
3
954, 3, 1.0, 225, 3, -0.5, 273, 3, -0.5
*EQUATION
3
955, 1, 1.0, 251, 1, -0.5, 271, 1, -0.5
*EQUATION
3
955, 2, 1.0, 251, 2, -0.5, 271, 2, -0.5
*EQUATION
3
955, 3, 1.0, 251, 3, -0.5, 271, 3, -0.5
*EQUATION
3
956, 1, 1.0, 251, 1, -0.5, 252, 1, -0.5
*EQUATION
3
956, 2, 1.0, 251, 2, -0.5, 252, 2, -0.5
*EQUATION
3
956, 3, 1.0, 251, 3, -0.5, 252, 3, -0.5
*EQUATION
5
957, 1, 1.0, 251, 1, -0.25, 252, 1, -0.25, 273, 1, -0.25, 271, 1, -0.25
*EQUATION
5
957, 2, 1.0, 251, 2, -0.25, 252, 2, -0.25, 273, 2, -0.25, 271, 2, -0.25
*EQUATION
5
957, 3, 1.0, 251, 3, -0.25, 252, 3, -0.25, 273, 3, -0.25, 271, 3, -0.25
*EQUATION
3
958, 1, 1.0, 271, 1, -0.5, 273, 1, -0.5
*EQUATION
3
958, 2, 1.0, 271, 2, -0.5, 273, 2, -0.5
*EQUATION
3
958, 3, 1.0, 271, 3, -0.5, 273, 3, -0.5
*EQUATION
3
959, 1, 1.0, 252, 1, -0.5, 273, 1, -0.5
*EQUATION
3
959, 2, 1.0, 252, 2, -0.5, 273, 2, -0.5
*EQUATION
3
959, 3, 1.0, 252, 3, -0.5, 273, 3, -0.5
*EQUATION
5
960, 1, 1.0, 204, 1, -0.25, 252, 1, -0.25, 258, 1, -0.25, 210, 1, -0.25
*EQUATION
5
960, 2, 1.0, 204, 2, -0.25, 252, 2, -0.25, 258, 2, -0.25, 210, 2, -0.25
*EQUATION
5
960, 3, 1.0, 204, 3, -0.25, 252, 3, -0.25, 258, 3, -0.25, 210, 3, -0.25
*EQUATION
5
962, 1, 1.0, 225, 1, -0.25, 273, 1, -0.25, 275, 1, -0.25, 227, 1, -0.25
*EQUATION
5
962, 2, 1.0, 225, 2, -0.25, 273, 2, -0.25, 275, 2, -0.25, 227, 2, -0.25
*EQUATION
5
962, 3, 1.0, 225, 3, -0.25, 273, 3, -0.25, 275, 3, -0.25, 227, 3, -0.25
*EQUATION
3
963, 1, 1.0, 210, 1, -0.5, 258, 1, -0.5
*EQUATION
3
963, 2, 1.0, 210, 2, -0.5, 258, 2, -0.5
*EQUATION
3
963, 3, 1.0, 210, 3, -0.5, 258, 3, -0.5
*EQUATION
5
964, 1, 1.0, 210, 1, -0.25, 258, 1, -0.25, 275, 1, -0.25, 227, 1, -0.25
*EQUATION
5
964, 2, 1.0, 210, 2, -0.25, 258, 2, -0.25, 275, 2, -0.25, 227, 2, -0.25
*EQUATION
5
964, 3, 1.0, 210, 3, -0.25, 258, 3, -0.25, 275, 3, -0.25, 227, 3, -0.25
*EQUATION
3
965, 1, 1.0, 227, 1, -0.5, 275, 1, -0.5
*EQUATION
3
965, 2, 1.0, 227, 2, -0.5, 275, 2, -0.5
*EQUATION
3
965, 3, 1.0, 227, 3, -0.5, 275, 3, -0.5
*EQUATION
3
966, 1, 1.0, 252, 1, -0.5, 258, 1, -0.5
*EQUATION
3
966, 2, 1.0, 252, 2, -0.5, 258, 2, -0.5
*EQUATION
3
966, 3, 1.0, 252, 3, -0.5, 258, 3, -0.5
*EQUATION
5
967, 1, 1.0, 252, 1, -0.25, 258, 1, -0.25, 275, 1, -0.25, 273, 1, -0.25
*EQUATION
5
967, 2, 1.0, 252, 2, -0.25, 258, 2, -0.25, 275, 2, -0.25, 273, 2, -0.25
*EQUATION
5
967, 3, 1.0, 252, 3, -0.25, 258, 3, -0.25, 275, 3, -0.25, 273, 3, -0.25
*EQUATION
3
968, 1, 1.0, 273, 1, -0.5, 275, 1, -0.5
*EQUATION
3
968, 2, 1.0, 273, 2, -0.5, 275, 2, -0.5
*EQUATION
3
968, 3, 1.0, 273, 3, -0.5, 275, 3, -0.5
*EQUATION
3
969, 1, 1.0, 258, 1, -0.5, 275, 1, -0.5
*EQUATION
3
969, 2, 1.0, 258, 2, -0.5, 275, 2, -0.5
*EQUATION
3
969, 3, 1.0, 258, 3, -0.5, 275, 3, -0.5
*EQUATION
3
970, 1, 1.0, 585, 1, -0.5, 587, 1, -0.5
*EQUATION
3
970, 2, 1.0, 585, 2, -0.5, 587, 2, -0.5
*EQUATION
3
970, 3, 1.0, 585, 3, -0.5, 587, 3, -0.5
*EQUATION
3
971, 1, 1.0, 585, 1, -0.5, 586, 1, -0.5
*EQUATION
3
971, 2, 1.0, 585, 2, -0.5, 586, 2, -0.5
*EQUATION
3
971, 3, 1.0, 585, 3, -0.5, 586, 3, -0.5
*EQUATION
5
972, 1, 1.0, 585, 1, -0.25, 586, 1, -0.25, 588, 1, -0.25, 587, 1, -0.25
*EQUATION
5
972, 2, 1.0, 585, 2, -0.25, 586, 2, -0.25, 588, 2, -0.25, 587, 2, -0.25
*EQUATION
5
972, 3, 1.0, 585, 3, -0.25, 586, 3, -0.25, 588, 3, -0.25, 587, 3, -0.25
*EQUATION
3
973, 1, 1.0, 587, 1, -0.5, 588, 1, -0.5
*EQUATION
3
973, 2, 1.0, 587, 2, -0.5, 588, 2, -0.5
*EQUATION
3
973, 3, 1.0, 587, 3, -0.5, 588, 3, -0.5
*EQUATION
3
974, 1, 1.0, 586, 1, -0.5, 588, 1, -0.5
*EQUATION
3
974, 2, 1.0, 586, 2, -0.5, 588, 2, -0.5
*EQUATION
3
974, 3, 1.0, 586, 3, -0.5, 588, 3, -0.5
*EQUATION
3
975, 1, 1.0, 585, 1, -0.5, 633, 1, -0.5
*EQUATION
3
975, 2, 1.0, 585, 2, -0.5, 633, 2, -0.5
*EQUATION
3
975, 3, 1.0, 585, 3, -0.5, 633, 3, -0.5
*EQUATION
3
977, 1, 1.0, 587, 1, -0.5, 635, 1, -0.5
*EQUATION
3
977, 2, 1.0, 587, 2, -0.5, 635, 2, -0.5
*EQUATION
3
977, 3, 1.0, 587, 3, -0.5, 635, 3, -0.5
*EQUATION
5
978, 1, 1.0, 585, 1, -0.25, 633, 1, -0.25, 634, 1, -0.25, 586, 1, -0.25
*EQUATION
5
978, 2, 1.0, 585, 2, -0.25, 633, 2, -0.25, 634, 2, -0.25, 586, 2, -0.25
*EQUATION
5
978, 3, 1.0, 585, 3, -0.25, 633, 3, -0.25, 634, 3, -0.25, 586, 3, -0.25
*EQUATION
3
981, 1, 1.0, 586, 1, -0.5, 634, 1, -0.5
*EQUATION
3
981, 2, 1.0, 586, 2, -0.5, 634, 2, -0.5
*EQUATION
3
981, 3, 1.0, 586, 3, -0.5, 634, 3, -0.5
*EQUATION
3
985, 1, 1.0, 633, 1, -0.5, 634, 1, -0.5
*EQUATION
3
985, 2, 1.0, 633, 2, -0.5, 634, 2, -0.5
*EQUATION
3
985, 3, 1.0, 633, 3, -0.5, 634, 3, -0.5
*EQUATION
3
989, 1, 1.0, 586, 1, -0.5, 593, 1, -0.5
*EQUATION
3
989, 2, 1.0, 586, 2, -0.5, 593, 2, -0.5
*EQUATION
3
989, 3, 1.0, 586, 3, -0.5, 593, 3, -0.5
*EQUATION
5
990, 1, 1.0, 586, 1, -0.25, 593, 1, -0.25, 594, 1, -0.25, 588, 1, -0.25
*EQUATION
5
990, 2, 1.0, 586, 2, -0.25, 593, 2, -0.25, 594, 2, -0.25, 588, 2, -0.25
*EQUATION
5
990, 3, 1.0, 586, 3, -0.25, 593, 3, -0.25, 594, 3, -0.25, 588, 3, -0.25
*EQUATION
3
991, 1, 1.0, 588, 1, -0.5, 594, 1, -0.5
*EQUATION
3
991, 2, 1.0, 588, 2, -0.5, 594, 2, -0.5
*EQUATION
3
991, 3, 1.0, 588, 3, -0.5, 594, 3, -0.5
*EQUATION
3
992, 1, 1.0, 593, 1, -0.5, 594, 1, -0.5
*EQUATION
3
992, 2, 1.0, 593, 2, -0.5, 594, 2, -0.5
*EQUATION
3
992, 3, 1.0, 593, 3, -0.5, 594, 3, -0.5
*EQUATION
5
993, 1, 1.0, 586, 1, -0.25, 634, 1, -0.25, 641, 1, -0.25, 593, 1, -0.25
*EQUATION
5
993, 2, 1.0, 586, 2, -0.25, 634, 2, -0.25, 641, 2, -0.25, 593, 2, -0.25
*EQUATION
5
993, 3, 1.0, 586, 3, -0.25, 634, 3, -0.25, 641, 3, -0.25, 593, 3, -0.25
*EQUATION
3
996, 1, 1.0, 593, 1, -0.5, 641, 1, -0.5
*EQUATION
3
996, 2, 1.0, 593, 2, -0.5, 641, 2, -0.5
*EQUATION
3
996, 3, 1.0, 593, 3, -0.5, 641, 3, -0.5
*EQUATION
3
998, 1, 1.0, 594, 1, -0.5, 642, 1, -0.5
*EQUATION
3
998, 2, 1.0, 594, 2, -0.5, 642, 2, -0.5
*EQUATION
3
998, 3, 1.0, 594, 3, -0.5, 642, 3, -0.5
*EQUATION
3
999, 1, 1.0, 634, 1, -0.5, 641, 1, -0.5
*EQUATION
3
999, 2, 1.0, 634, 2, -0.5, 641, 2, -0.5
*EQUATION
3
999, 3, 1.0, 634, 3, -0.5, 641, 3, -0.5
*EQUATION
3
1003, 1, 1.0, 587, 1, -0.5, 607, 1, -0.5
*EQUATION
3
1003, 2, 1.0, 587, 2, -0.5, 607, 2, -0.5
*EQUATION
3
1003, 3, 1.0, 587, 3, -0.5, 607, 3, -0.5
*EQUATION
5
1004, 1, 1.0, 587, 1, -0.25, 588, 1, -0.25, 609, 1, -0.25, 607, 1, -0.25
*EQUATION
5
1004, 2, 1.0, 587, 2, -0.25, 588, 2, -0.25, 609, 2, -0.25, 607, 2, -0.25
*EQUATION
5
1004, 3, 1.0, 587, 3, -0.25, 588, 3, -0.25, 609, 3, -0.25, 607, 3, -0.25
*EQUATION
3
1005, 1, 1.0, 607, 1, -0.5, 609, 1, -0.5
*EQUATION
3
1005, 2, 1.0, 607, 2, -0.5, 609, 2, -0.5
*EQUATION
3
1005, 3, 1.0, 607, 3, -0.5, 609, 3, -0.5
*EQUATION
3
1006, 1, 1.0, 588, 1, -0.5, 609, 1, -0.5
*EQUATION
3
1006, 2, 1.0, 588, 2, -0.5, 609, 2, -0.5
*EQUATION
3
1006, 3, 1.0, 588, 3, -0.5, 609, 3, -0.5
*EQUATION
5
1007, 1, 1.0, 587, 1, -0.25, 635, 1, -0.25, 655, 1, -0.25, 607, 1, -0.25
*EQUATION
5
1007, 2, 1.0, 587, 2, -0.25, 635, 2, -0.25, 655, 2, -0.25, 607, 2, -0.25
*EQUATION
5
1007, 3, 1.0, 587, 3, -0.25, 635, 3, -0.25, 655, 3, -0.25, 607, 3, -0.25
*EQUATION
3
1008, 1, 1.0, 607, 1, -0.5, 655, 1, -0.5
*EQUATION
3
1008, 2, 1.0, 607, 2, -0.5, 655, 2, -0.5
*EQUATION
3
1008, 3, 1.0, 607, 3, -0.5, 655, 3, -0.5
*EQUATION
5
1010, 1, 1.0, 607, 1, -0.25, 655, 1, -0.25, 657, 1, -0.25, 609, 1, -0.25
*EQUATION
5
1010, 2, 1.0, 607, 2, -0.25, 655, 2, -0.25, 657, 2, -0.25, 609, 2, -0.25
*EQUATION
5
1010, 3, 1.0, 607, 3, -0.25, 655, 3, -0.25, 657, 3, -0.25, 609, 3, -0.25
*EQUATION
3
1012, 1, 1.0, 609, 1, -0.5, 657, 1, -0.5
*EQUATION
3
1012, 2, 1.0, 609, 2, -0.5, 657, 2, -0.5
*EQUATION
3
1012, 3, 1.0, 609, 3, -0.5, 657, 3, -0.5
*EQUATION
3
1013, 1, 1.0, 635, 1, -0.5, 655, 1, -0.5
*EQUATION
3
1013, 2, 1.0, 635, 2, -0.5, 655, 2, -0.5
*EQUATION
3
1013, 3, 1.0, 635, 3, -0.5, 655, 3, -0.5
*EQUATION
3
1015, 1, 1.0, 655, 1, -0.5, 657, 1, -0.5
*EQUATION
3
1015, 2, 1.0, 655, 2, -0.5, 657, 2, -0.5
*EQUATION
3
1015, 3, 1.0, 655, 3, -0.5, 657, 3, -0.5
*EQUATION
5
1017, 1, 1.0, 588, 1, -0.25, 594, 1, -0.25, 611, 1, -0.25, 609, 1, -0.25
*EQUATION
5
1017, 2, 1.0, 588, 2, -0.25, 594, 2, -0.25, 611, 2, -0.25, 609, 2, -0.25
*EQUATION
5
1017, 3, 1.0, 588, 3, -0.25, 594, 3, -0.25, 611, 3, -0.25, 609, 3, -0.25
*EQUATION
3
1018, 1, 1.0, 609, 1, -0.5, 611, 1, -0.5
*EQUATION
3
1018, 2, 1.0, 609, 2, -0.5, 611, 2, -0.5
*EQUATION
3
1018, 3, 1.0, 609, 3, -0.5, 611, 3, -0.5
*EQUATION
3
1019, 1, 1.0, 594, 1, -0.5, 611, 1, -0.5
*EQUATION
3
1019, 2, 1.0, 594, 2, -0.5, 611, 2, -0.5
*EQUATION
3
1019, 3, 1.0, 594, 3, -0.5, 611, 3, -0.5
*EQUATION
5
1021, 1, 1.0, 609, 1, -0.25, 657, 1, -0.25, 659, 1, -0.25, 611, 1, -0.25
*EQUATION
5
1021, 2, 1.0, 609, 2, -0.25, 657, 2, -0.25, 659, 2, -0.25, 611, 2, -0.25
*EQUATION
5
1021, 3, 1.0, 609, 3, -0.25, 657, 3, -0.25, 659, 3, -0.25, 611, 3, -0.25
*EQUATION
5
1022, 1, 1.0, 594, 1, -0.25, 642, 1, -0.25, 659, 1, -0.25, 611, 1, -0.25
*EQUATION
5
1022, 2, 1.0, 594, 2, -0.25, 642, 2, -0.25, 659, 2, -0.25, 611, 2, -0.25
*EQUATION
5
1022, 3, 1.0, 594, 3, -0.25, 642, 3, -0.25, 659, 3, -0.25, 611, 3, -0.25
*EQUATION
3
1023, 1, 1.0, 611, 1, -0.5, 659, 1, -0.5
*EQUATION
3
1023, 2, 1.0, 611, 2, -0.5, 659, 2, -0.5
*EQUATION
3
1023, 3, 1.0, 611, 3, -0.5, 659, 3, -0.5
*EQUATION
3
1025, 1, 1.0, 657, 1, -0.5, 659, 1, -0.5
*EQUATION
3
1025, 2, 1.0, 657, 2, -0.5, 659, 2, -0.5
*EQUATION
3
1025, 3, 1.0, 657, 3, -0.5, 659, 3, -0.5
*EQUATION
3
1026, 1, 1.0, 642, 1, -0.5, 659, 1, -0.5
*EQUATION
3
1026, 2, 1.0, 642, 2, -0.5, 659, 2, -0.5
*EQUATION
3
1026, 3, 1.0, 642, 3, -0.5, 659, 3, -0.5
*EQUATION
3
1027, 1, 1.0, 633, 1, -0.5, 681, 1, -0.5
*EQUATION
3
1027, 2, 1.0, 633, 2, -0.5, 681, 2, -0.5
*EQUATION
3
1027, 3, 1.0, 633, 3, -0.5, 681, 3, -0.5
*EQUATION
3
1029, 1, 1.0, 635, 1, -0.5, 683, 1, -0.5
*EQUATION
3
1029, 2, 1.0, 635, 2, -0.5, 683, 2, -0.5
*EQUATION
3
1029, 3, 1.0, 635, 3, -0.5, 683, 3, -0.5
*EQUATION
5
1030, 1, 1.0, 633, 1, -0.25, 681, 1, -0.25, 682, 1, -0.25, 634, 1, -0.25
*EQUATION
5
1030, 2, 1.0, 633, 2, -0.25, 681, 2, -0.25, 682, 2, -0.25, 634, 2, -0.25
*EQUATION
5
1030, 3, 1.0, 633, 3, -0.25, 681, 3, -0.25, 682, 3, -0.25, 634, 3, -0.25
*EQUATION
3
1033, 1, 1.0, 634, 1, -0.5, 682, 1, -0.5
*EQUATION
3
1033, 2, 1.0, 634, 2, -0.5, 682, 2, -0.5
*EQUATION
3
1033, 3, 1.0, 634, 3, -0.5, 682, 3, -0.5
*EQUATION
3
1037, 1, 1.0, 681, 1, -0.5, 682, 1, -0.5
*EQUATION
3
1037, 2, 1.0, 681, 2, -0.5, 682, 2, -0.5
*EQUATION
3
1037, 3, 1.0, 681, 3, -0.5, 682, 3, -0.5
*EQUATION
5
1041, 1, 1.0, 634, 1, -0.25, 682, 1, -0.25, 689, 1, -0.25, 641, 1, -0.25
*EQUATION
5
1041, 2, 1.0, 634, 2, -0.25, 682, 2, -0.25, 689, 2, -0.25, 641, 2, -0.25
*EQUATION
5
1041, 3, 1.0, 634, 3, -0.25, 682, 3, -0.25, 689, 3, -0.25, 641, 3, -0.25
*EQUATION
3
1044, 1, 1.0, 641, 1, -0.5, 689, 1, -0.5
*EQUATION
3
1044, 2, 1.0, 641, 2, -0.5, 689, 2, -0.5
*EQUATION
3
1044, 3, 1.0, 641, 3, -0.5, 689, 3, -0.5
*EQUATION
3
1046, 1, 1.0, 642, 1, -0.5, 690, 1, -0.5
*EQUATION
3
1046, 2, 1.0, 642, 2, -0.5, 690, 2, -0.5
*EQUATION
3
1046, 3, 1.0, 642, 3, -0.5, 690, 3, -0.5
*EQUATION
3
1047, 1, 1.0, 682, 1, -0.5, 689, 1, -0.5
*EQUATION
3
1047, 2, 1.0, 682, 2, -0.5, 689, 2, -0.5
*EQUATION
3
1047, 3, 1.0, 682, 3, -0.5, 689, 3, -0.5
*EQUATION
5
1051, 1, 1.0, 635, 1, -0.25, 683, 1, -0.25, 703, 1, -0.25, 655, 1, -0.25
*EQUATION
5
1051, 2, 1.0, 635, 2, -0.25, 683, 2, -0.25, 703, 2, -0.25, 655, 2, -0.25
*EQUATION
5
1051, 3, 1.0, 635, 3, -0.25, 683, 3, -0.25, 703, 3, -0.25, 655, 3, -0.25
*EQUATION
3
1052, 1, 1.0, 655, 1, -0.5, 703, 1, -0.5
*EQUATION
3
1052, 2, 1.0, 655, 2, -0.5, 703, 2, -0.5
*EQUATION
3
1052, 3, 1.0, 655, 3, -0.5, 703, 3, -0.5
*EQUATION
5
1054, 1, 1.0, 655, 1, -0.25, 703, 1, -0.25, 705, 1, -0.25, 657, 1, -0.25
*EQUATION
5
1054, 2, 1.0, 655, 2, -0.25, 703, 2, -0.25, 705, 2, -0.25, 657, 2, -0.25
*EQUATION
5
1054, 3, 1.0, 655, 3, -0.25, 703, 3, -0.25, 705, 3, -0.25, 657, 3, -0.25
*EQUATION
3
1056, 1, 1.0, 657, 1, -0.5, 705, 1, -0.5
*EQUATION
3
1056, 2, 1.0, 657, 2, -0.5, 705, 2, -0.5
*EQUATION
3
1056, 3, 1.0, 657, 3, -0.5, 705, 3, -0.5
*EQUATION
3
1057, 1, 1.0, 683, 1, -0.5, 703, 1, -0.5
*EQUATION
3
1057, 2, 1.0, 683, 2, -0.5, 703, 2, -0.5
*EQUATION
3
1057, 3, 1.0, 683, 3, -0.5, 703, 3, -0.5
*EQUATION
3
1059, 1, 1.0, 703, 1, -0.5, 705, 1, -0.5
*EQUATION
3
1059, 2, 1.0, 703, 2, -0.5, 705, 2, -0.5
*EQUATION
3
1059, 3, 1.0, 703, 3, -0.5, 705, 3, -0.5
*EQUATION
5
1062, 1, 1.0, 657, 1, -0.25, 705, 1, -0.25, 707, 1, -0.25, 659, 1, -0.25
*EQUATION
5
1062, 2, 1.0, 657, 2, -0.25, 705, 2, -0.25, 707, 2, -0.25, 659, 2, -0.25
*EQUATION
5
1062, 3, 1.0, 657, 3, -0.25, 705, 3, -0.25, 707, 3, -0.25, 659, 3, -0.25
*EQUATION
5
1063, 1, 1.0, 642, 1, -0.25, 690, 1, -0.25, 707, 1, -0.25, 659, 1, -0.25
*EQUATION
5
1063, 2, 1.0, 642, 2, -0.25, 690, 2, -0.25, 707, 2, -0.25, 659, 2, -0.25
*EQUATION
5
1063, 3, 1.0, 642, 3, -0.25, 690, 3, -0.25, 707, 3, -0.25, 659, 3, -0.25
*EQUATION
3
1064, 1, 1.0, 659, 1, -0.5, 707, 1, -0.5
*EQUATION
3
1064, 2, 1.0, 659, 2, -0.5, 707, 2, -0.5
*EQUATION
3
1064, 3, 1.0, 659, 3, -0.5, 707, 3, -0.5
*EQUATION
3
1066, 1, 1.0, 705, 1, -0.5, 707, 1, -0.5
*EQUATION
3
1066, 2, 1.0, 705, 2, -0.5, 707, 2, -0.5
*EQUATION
3
1066, 3, 1.0, 705, 3, -0.5, 707, 3, -0.5
*EQUATION
3
1067, 1, 1.0, 690, 1, -0.5, 707, 1, -0.5
*EQUATION
3
1067, 2, 1.0, 690, 2, -0.5, 707, 2, -0.5
*EQUATION
3
1067, 3, 1.0, 690, 3, -0.5, 707, 3, -0.5
*EQUATION
3
1068, 1, 1.0, 681, 1, -0.5, 729, 1, -0.5
*EQUATION
3
1068, 2, 1.0, 681, 2, -0.5, 729, 2, -0.5
*EQUATION
3
1068, 3, 1.0, 681, 3, -0.5, 729, 3, -0.5
*EQUATION
3
1070, 1, 1.0, 683, 1, -0.5, 731, 1, -0.5
*EQUATION
3
1070, 2, 1.0, 683, 2, -0.5, 731, 2, -0.5
*EQUATION
3
1070, 3, 1.0, 683, 3, -0.5, 731, 3, -0.5
*EQUATION
5
1071, 1, 1.0, 681, 1, -0.25, 729, 1, -0.25, 730, 1, -0.25, 682, 1, -0.25
*EQUATION
5
1071, 2, 1.0, 681, 2, -0.25, 729, 2, -0.25, 730, 2, -0.25, 682, 2, -0.25
*EQUATION
5
1071, 3, 1.0, 681, 3, -0.25, 729, 3, -0.25, 730, 3, -0.25, 682, 3, -0.25
*EQUATION
3
1074, 1, 1.0, 682, 1, -0.5, 730, 1, -0.5
*EQUATION
3
1074, 2, 1.0, 682, 2, -0.5, 730, 2, -0.5
*EQUATION
3
1074, 3, 1.0, 682, 3, -0.5, 730, 3, -0.5
*EQUATION
3
1078, 1, 1.0, 729, 1, -0.5, 730, 1, -0.5
*EQUATION
3
1078, 2, 1.0, 729, 2, -0.5, 730, 2, -0.5
*EQUATION
3
1078, 3, 1.0, 729, 3, -0.5, 730, 3, -0.5
*EQUATION
5
1082, 1, 1.0, 682, 1, -0.25, 730, 1, -0.25, 737, 1, -0.25, 689, 1, -0.25
*EQUATION
5
1082, 2, 1.0, 682, 2, -0.25, 730, 2, -0.25, 737, 2, -0.25, 689, 2, -0.25
*EQUATION
5
1082, 3, 1.0, 682, 3, -0.25, 730, 3, -0.25, 737, 3, -0.25, 689, 3, -0.25
*EQUATION
3
1085, 1, 1.0, 689, 1, -0.5, 737, 1, -0.5
*EQUATION
3
1085, 2, 1.0, 689, 2, -0.5, 737, 2, -0.5
*EQUATION
3
1085, 3, 1.0, 689, 3, -0.5, 737, 3, -0.5
*EQUATION
3
1087, 1, 1.0, 690, 1, -0.5, 738, 1, -0.5
*EQUATION
3
1087, 2, 1.0, 690, 2, -0.5, 738, 2, -0.5
*EQUATION
3
1087, 3, 1.0, 690, 3, -0.5, 738, 3, -0.5
*EQUATION
3
1088, 1, 1.0, 730, 1, -0.5, 737, 1, -0.5
*EQUATION
3
1088, 2, 1.0, 730, 2, -0.5, 737, 2, -0.5
*EQUATION
3
1088, 3, 1.0, 730, 3, -0.5, 737, 3, -0.5
*EQUATION
5
1092, 1, 1.0, 683, 1, -0.25, 731, 1, -0.25, 751, 1, -0.25, 703, 1, -0.25
*EQUATION
5
1092, 2, 1.0, 683, 2, -0.25, 731, 2, -0.25, 751, 2, -0.25, 703, 2, -0.25
*EQUATION
5
1092, 3, 1.0, 683, 3, -0.25, 731, 3, -0.25, 751, 3, -0.25, 703, 3, -0.25
*EQUATION
3
1093, 1, 1.0, 703, 1, -0.5, 751, 1, -0.5
*EQUATION
3
1093, 2, 1.0, 703, 2, -0.5, 751, 2, -0.5
*EQUATION
3
1093, 3, 1.0, 703, 3, -0.5, 751, 3, -0.5
*EQUATION
5
1095, 1, 1.0, 703, 1, -0.25, 751, 1, -0.25, 753, 1, -0.25, 705, 1, -0.25
*EQUATION
5
1095, 2, 1.0, 703, 2, -0.25, 751, 2, -0.25, 753, 2, -0.25, 705, 2, -0.25
*EQUATION
5
1095, 3, 1.0, 703, 3, -0.25, 751, 3, -0.25, 753, 3, -0.25, 705, 3, -0.25
*EQUATION
3
1097, 1, 1.0, 705, 1, -0.5, 753, 1, -0.5
*EQUATION
3
1097, 2, 1.0, 705, 2, -0.5, 753, 2, -0.5
*EQUATION
3
1097, 3, 1.0, 705, 3, -0.5, 753, 3, -0.5
*EQUATION
3
1098, 1, 1.0, 731, 1, -0.5, 751, 1, -0.5
*EQUATION
3
1098, 2, 1.0, 731, 2, -0.5, 751, 2, -0.5
*EQUATION
3
1098, 3, 1.0, 731, 3, -0.5, 751, 3, -0.5
*EQUATION
3
1100, 1, 1.0, 751, 1, -0.5, 753, 1, -0.5
*EQUATION
3
1100, 2, 1.0, 751, 2, -0.5, 753, 2, -0.5
*EQUATION
3
1100, 3, 1.0, 751, 3, -0.5, 753, 3, -0.5
*EQUATION
5
1103, 1, 1.0, 705, 1, -0.25, 753, 1, -0.25, 755, 1, -0.25, 707, 1, -0.25
*EQUATION
5
1103, 2, 1.0, 705, 2, -0.25, 753, 2, -0.25, 755, 2, -0.25, 707, 2, -0.25
*EQUATION
5
1103, 3, 1.0, 705, 3, -0.25, 753, 3, -0.25, 755, 3, -0.25, 707, 3, -0.25
*EQUATION
5
1104, 1, 1.0, 690, 1, -0.25, 738, 1, -0.25, 755, 1, -0.25, 707, 1, -0.25
*EQUATION
5
1104, 2, 1.0, 690, 2, -0.25, 738, 2, -0.25, 755, 2, -0.25, 707, 2, -0.25
*EQUATION
5
1104, 3, 1.0, 690, 3, -0.25, 738, 3, -0.25, 755, 3, -0.25, 707, 3, -0.25
*EQUATION
3
1105, 1, 1.0, 707, 1, -0.5, 755, 1, -0.5
*EQUATION
3
1105, 2, 1.0, 707, 2, -0.5, 755, 2, -0.5
*EQUATION
3
1105, 3, 1.0, 707, 3, -0.5, 755, 3, -0.5
*EQUATION
3
1107, 1, 1.0, 753, 1, -0.5, 755, 1, -0.5
*EQUATION
3
1107, 2, 1.0, 753, 2, -0.5, 755, 2, -0.5
*EQUATION
3
1107, 3, 1.0, 753, 3, -0.5, 755, 3, -0.5
*EQUATION
3
1108, 1, 1.0, 738, 1, -0.5, 755, 1, -0.5
*EQUATION
3
1108, 2, 1.0, 738, 2, -0.5, 755, 2, -0.5
*EQUATION
3
1108, 3, 1.0, 738, 3, -0.5, 755, 3, -0.5
*EQUATION
3
1109, 1, 1.0, 729, 1, -0.5, 777, 1, -0.5
*EQUATION
3
1109, 2, 1.0, 729, 2, -0.5, 777, 2, -0.5
*EQUATION
3
1109, 3, 1.0, 729, 3, -0.5, 777, 3, -0.5
*EQUATION
5
1112, 1, 1.0, 729, 1, -0.25, 777, 1, -0.25, 778, 1, -0.25, 730, 1, -0.25
*EQUATION
5
1112, 2, 1.0, 729, 2, -0.25, 777, 2, -0.25, 778, 2, -0.25, 730, 2, -0.25
*EQUATION
5
1112, 3, 1.0, 729, 3, -0.25, 777, 3, -0.25, 778, 3, -0.25, 730, 3, -0.25
*EQUATION
3
1115, 1, 1.0, 730, 1, -0.5, 778, 1, -0.5
*EQUATION
3
1115, 2, 1.0, 730, 2, -0.5, 778, 2, -0.5
*EQUATION
3
1115, 3, 1.0, 730, 3, -0.5, 778, 3, -0.5
*EQUATION
3
1119, 1, 1.0, 777, 1, -0.5, 778, 1, -0.5
*EQUATION
3
1119, 2, 1.0, 777, 2, -0.5, 778, 2, -0.5
*EQUATION
3
1119, 3, 1.0, 777, 3, -0.5, 778, 3, -0.5
*EQUATION
5
1123, 1, 1.0, 730, 1, -0.25, 778, 1, -0.25, 785, 1, -0.25, 737, 1, -0.25
*EQUATION
5
1123, 2, 1.0, 730, 2, -0.25, 778, 2, -0.25, 785, 2, -0.25, 737, 2, -0.25
*EQUATION
5
1123, 3, 1.0, 730, 3, -0.25, 778, 3, -0.25, 785, 3, -0.25, 737, 3, -0.25
*EQUATION
3
1126, 1, 1.0, 737, 1, -0.5, 785, 1, -0.5
*EQUATION
3
1126, 2, 1.0, 737, 2, -0.5, 785, 2, -0.5
*EQUATION
3
1126, 3, 1.0, 737, 3, -0.5, 785, 3, -0.5
*EQUATION
3
1129, 1, 1.0, 778, 1, -0.5, 785, 1, -0.5
*EQUATION
3
1129, 2, 1.0, 778, 2, -0.5, 785, 2, -0.5
*EQUATION
3
1129, 3, 1.0, 778, 3, -0.5, 785, 3, -0.5
*EQUATION
3
1133, 1, 1.0, 748, 1, -0.5, 749, 1, -0.5
*EQUATION
3
1133, 2, 1.0, 748, 2, -0.5, 749, 2, -0.5
*EQUATION
3
1133, 3, 1.0, 748, 3, -0.5, 749, 3, -0.5
*EQUATION
3
1134, 1, 1.0, 731, 1, -0.5, 748, 1, -0.5
*EQUATION
3
1134, 2, 1.0, 731, 2, -0.5, 748, 2, -0.5
*EQUATION
3
1134, 3, 1.0, 731, 3, -0.5, 748, 3, -0.5
*EQUATION
5
1135, 1, 1.0, 748, 1, -0.25, 731, 1, -0.25, 751, 1, -0.25, 749, 1, -0.25
*EQUATION
5
1135, 2, 1.0, 748, 2, -0.25, 731, 2, -0.25, 751, 2, -0.25, 749, 2, -0.25
*EQUATION
5
1135, 3, 1.0, 748, 3, -0.25, 731, 3, -0.25, 751, 3, -0.25, 749, 3, -0.25
*EQUATION
3
1136, 1, 1.0, 749, 1, -0.5, 751, 1, -0.5
*EQUATION
3
1136, 2, 1.0, 749, 2, -0.5, 751, 2, -0.5
*EQUATION
3
1136, 3, 1.0, 749, 3, -0.5, 751, 3, -0.5
*EQUATION
3
1137, 1, 1.0, 748, 1, -0.5, 796, 1, -0.5
*EQUATION
3
1137, 2, 1.0, 748, 2, -0.5, 796, 2, -0.5
*EQUATION
3
1137, 3, 1.0, 748, 3, -0.5, 796, 3, -0.5
*EQUATION
5
1138, 1, 1.0, 748, 1, -0.25, 796, 1, -0.25, 797, 1, -0.25, 749, 1, -0.25
*EQUATION
5
1138, 2, 1.0, 748, 2, -0.25, 796, 2, -0.25, 797, 2, -0.25, 749, 2, -0.25
*EQUATION
5
1138, 3, 1.0, 748, 3, -0.25, 796, 3, -0.25, 797, 3, -0.25, 749, 3, -0.25
*EQUATION
3
1139, 1, 1.0, 749, 1, -0.5, 797, 1, -0.5
*EQUATION
3
1139, 2, 1.0, 749, 2, -0.5, 797, 2, -0.5
*EQUATION
3
1139, 3, 1.0, 749, 3, -0.5, 797, 3, -0.5
*EQUATION
5
1142, 1, 1.0, 749, 1, -0.25, 797, 1, -0.25, 799, 1, -0.25, 751, 1, -0.25
*EQUATION
5
1142, 2, 1.0, 749, 2, -0.25, 797, 2, -0.25, 799, 2, -0.25, 751, 2, -0.25
*EQUATION
5
1142, 3, 1.0, 749, 3, -0.25, 797, 3, -0.25, 799, 3, -0.25, 751, 3, -0.25
*EQUATION
3
1144, 1, 1.0, 751, 1, -0.5, 799, 1, -0.5
*EQUATION
3
1144, 2, 1.0, 751, 2, -0.5, 799, 2, -0.5
*EQUATION
3
1144, 3, 1.0, 751, 3, -0.5, 799, 3, -0.5
*EQUATION
3
1145, 1, 1.0, 796, 1, -0.5, 797, 1, -0.5
*EQUATION
3
1145, 2, 1.0, 796, 2, -0.5, 797, 2, -0.5
*EQUATION
3
1145, 3, 1.0, 796, 3, -0.5, 797, 3, -0.5
*EQUATION
3
1146, 1, 1.0, 779, 1, -0.5, 796, 1, -0.5
*EQUATION
3
1146, 2, 1.0, 779, 2, -0.5, 796, 2, -0.5
*EQUATION
3
1146, 3, 1.0, 779, 3, -0.5, 796, 3, -0.5
*EQUATION
5
1147, 1, 1.0, 796, 1, -0.25, 779, 1, -0.25, 799, 1, -0.25, 797, 1, -0.25
*EQUATION
5
1147, 2, 1.0, 796, 2, -0.25, 779, 2, -0.25, 799, 2, -0.25, 797, 2, -0.25
*EQUATION
5
1147, 3, 1.0, 796, 3, -0.25, 779, 3, -0.25, 799, 3, -0.25, 797, 3, -0.25
*EQUATION
3
1148, 1, 1.0, 797, 1, -0.5, 799, 1, -0.5
*EQUATION
3
1148, 2, 1.0, 797, 2, -0.5, 799, 2, -0.5
*EQUATION
3
1148, 3, 1.0, 797, 3, -0.5, 799, 3, -0.5
*EQUATION
3
1149, 1, 1.0, 779, 1, -0.5, 799, 1, -0.5
*EQUATION
3
1149, 2, 1.0, 779, 2, -0.5, 799, 2, -0.5
*EQUATION
3
1149, 3, 1.0, 779, 3, -0.5, 799, 3, -0.5
*EQUATION
5
1151, 1, 1.0, 751, 1, -0.25, 799, 1, -0.25, 801, 1, -0.25, 753, 1, -0.25
*EQUATION
5
1151, 2, 1.0, 751, 2, -0.25, 799, 2, -0.25, 801, 2, -0.25, 753, 2, -0.25
*EQUATION
5
1151, 3, 1.0, 751, 3, -0.25, 799, 3, -0.25, 801, 3, -0.25, 753, 3, -0.25
*EQUATION
3
1153, 1, 1.0, 753, 1, -0.5, 801, 1, -0.5
*EQUATION
3
1153, 2, 1.0, 753, 2, -0.5, 801, 2, -0.5
*EQUATION
3
1153, 3, 1.0, 753, 3, -0.5, 801, 3, -0.5
*EQUATION
3
1155, 1, 1.0, 799, 1, -0.5, 801, 1, -0.5
*EQUATION
3
1155, 2, 1.0, 799, 2, -0.5, 801, 2, -0.5
*EQUATION
3
1155, 3, 1.0, 799, 3, -0.5, 801, 3, -0.5
*EQUATION
5
1158, 1, 1.0, 753, 1, -0.25, 801, 1, -0.25, 803, 1, -0.25, 755, 1, -0.25
*EQUATION
5
1158, 2, 1.0, 753, 2, -0.25, 801, 2, -0.25, 803, 2, -0.25, 755, 2, -0.25
*EQUATION
5
1158, 3, 1.0, 753, 3, -0.25, 801, 3, -0.25, 803, 3, -0.25, 755, 3, -0.25
*EQUATION
3
1160, 1, 1.0, 755, 1, -0.5, 803, 1, -0.5
*EQUATION
3
1160, 2, 1.0, 755, 2, -0.5, 803, 2, -0.5
*EQUATION
3
1160, 3, 1.0, 755, 3, -0.5, 803, 3, -0.5
*EQUATION
3
1162, 1, 1.0, 801, 1, -0.5, 803, 1, -0.5
*EQUATION
3
1162, 2, 1.0, 801, 2, -0.5, 803, 2, -0.5
*EQUATION
3
1162, 3, 1.0, 801, 3, -0.5, 803, 3, -0.5
*EQUATION
3
1163, 1, 1.0, 786, 1, -0.5, 803, 1, -0.5
*EQUATION
3
1163, 2, 1.0, 786, 2, -0.5, 803, 2, -0.5
*EQUATION
3
1163, 3, 1.0, 786, 3, -0.5, 803, 3, -0.5
*EQUATION
3
1164, 1, 1.0, 738, 1, -0.5, 757, 1, -0.5
*EQUATION
3
1164, 2, 1.0, 738, 2, -0.5, 757, 2, -0.5
*EQUATION
3
1164, 3, 1.0, 738, 3, -0.5, 757, 3, -0.5
*EQUATION
5
1165, 1, 1.0, 738, 1, -0.25, 757, 1, -0.25, 758, 1, -0.25, 755, 1, -0.25
*EQUATION
5
1165, 2, 1.0, 738, 2, -0.25, 757, 2, -0.25, 758, 2, -0.25, 755, 2, -0.25
*EQUATION
5
1165, 3, 1.0, 738, 3, -0.25, 757, 3, -0.25, 758, 3, -0.25, 755, 3, -0.25
*EQUATION
3
1166, 1, 1.0, 755, 1, -0.5, 758, 1, -0.5
*EQUATION
3
1166, 2, 1.0, 755, 2, -0.5, 758, 2, -0.5
*EQUATION
3
1166, 3, 1.0, 755, 3, -0.5, 758, 3, -0.5
*EQUATION
3
1167, 1, 1.0, 757, 1, -0.5, 758, 1, -0.5
*EQUATION
3
1167, 2, 1.0, 757, 2, -0.5, 758, 2, -0.5
*EQUATION
3
1167, 3, 1.0, 757, 3, -0.5, 758, 3, -0.5
*EQUATION
5
1170, 1, 1.0, 755, 1, -0.25, 803, 1, -0.25, 806, 1, -0.25, 758, 1, -0.25
*EQUATION
5
1170, 2, 1.0, 755, 2, -0.25, 803, 2, -0.25, 806, 2, -0.25, 758, 2, -0.25
*EQUATION
5
1170, 3, 1.0, 755, 3, -0.25, 803, 3, -0.25, 806, 3, -0.25, 758, 3, -0.25
*EQUATION
3
1171, 1, 1.0, 757, 1, -0.5, 805, 1, -0.5
*EQUATION
3
1171, 2, 1.0, 757, 2, -0.5, 805, 2, -0.5
*EQUATION
3
1171, 3, 1.0, 757, 3, -0.5, 805, 3, -0.5
*EQUATION
5
1172, 1, 1.0, 757, 1, -0.25, 805, 1, -0.25, 806, 1, -0.25, 758, 1, -0.25
*EQUATION
5
1172, 2, 1.0, 757, 2, -0.25, 805, 2, -0.25, 806, 2, -0.25, 758, 2, -0.25
*EQUATION
5
1172, 3, 1.0, 757, 3, -0.25, 805, 3, -0.25, 806, 3, -0.25, 758, 3, -0.25
*EQUATION
3
1173, 1, 1.0, 758, 1, -0.5, 806, 1, -0.5
*EQUATION
3
1173, 2, 1.0, 758, 2, -0.5, 806, 2, -0.5
*EQUATION
3
1173, 3, 1.0, 758, 3, -0.5, 806, 3, -0.5
*EQUATION
3
1174, 1, 1.0, 786, 1, -0.5, 805, 1, -0.5
*EQUATION
3
1174, 2, 1.0, 786, 2, -0.5, 805, 2, -0.5
*EQUATION
3
1174, 3, 1.0, 786, 3, -0.5, 805, 3, -0.5
*EQUATION
5
1175, 1, 1.0, 786, 1, -0.25, 805, 1, -0.25, 806, 1, -0.25, 803, 1, -0.25
*EQUATION
5
1175, 2, 1.0, 786, 2, -0.25, 805, 2, -0.25, 806, 2, -0.25, 803, 2, -0.25
*EQUATION
5
1175, 3, 1.0, 786, 3, -0.25, 805, 3, -0.25, 806, 3, -0.25, 803, 3, -0.25
*EQUATION
3
1176, 1, 1.0, 803, 1, -0.5, 806, 1, -0.5
*EQUATION
3
1176, 2, 1.0, 803, 2, -0.5, 806, 2, -0.5
*EQUATION
3
1176, 3, 1.0, 803, 3, -0.5, 806, 3, -0.5
*EQUATION
3
1177, 1, 1.0, 805, 1, -0.5, 806, 1, -0.5
*EQUATION
3
1177, 2, 1.0, 805, 2, -0.5, 806, 2, -0.5
*EQUATION
3
1177, 3, 1.0, 805, 3, -0.5, 806, 3, -0.5
*EQUATION
3
1178, 1, 1.0, 777, 1, -0.5, 825, 1, -0.5
*EQUATION
3
1178, 2, 1.0, 777, 2, -0.5, 825, 2, -0.5
*EQUATION
3
1178, 3, 1.0, 777, 3, -0.5, 825, 3, -0.5
*EQUATION
3
1180, 1, 1.0, 779, 1, -0.5, 827, 1, -0.5
*EQUATION
3
1180, 2, 1.0, 779, 2, -0.5, 827, 2, -0.5
*EQUATION
3
1180, 3, 1.0, 779, 3, -0.5, 827, 3, -0.5
*EQUATION
5
1181, 1, 1.0, 777, 1, -0.25, 825, 1, -0.25, 826, 1, -0.25, 778, 1, -0.25
*EQUATION
5
1181, 2, 1.0, 777, 2, -0.25, 825, 2, -0.25, 826, 2, -0.25, 778, 2, -0.25
*EQUATION
5
1181, 3, 1.0, 777, 3, -0.25, 825, 3, -0.25, 826, 3, -0.25, 778, 3, -0.25
*EQUATION
3
1184, 1, 1.0, 778, 1, -0.5, 826, 1, -0.5
*EQUATION
3
1184, 2, 1.0, 778, 2, -0.5, 826, 2, -0.5
*EQUATION
3
1184, 3, 1.0, 778, 3, -0.5, 826, 3, -0.5
*EQUATION
3
1188, 1, 1.0, 825, 1, -0.5, 826, 1, -0.5
*EQUATION
3
1188, 2, 1.0, 825, 2, -0.5, 826, 2, -0.5
*EQUATION
3
1188, 3, 1.0, 825, 3, -0.5, 826, 3, -0.5
*EQUATION
5
1192, 1, 1.0, 778, 1, -0.25, 826, 1, -0.25, 833, 1, -0.25, 785, 1, -0.25
*EQUATION
5
1192, 2, 1.0, 778, 2, -0.25, 826, 2, -0.25, 833, 2, -0.25, 785, 2, -0.25
*EQUATION
5
1192, 3, 1.0, 778, 3, -0.25, 826, 3, -0.25, 833, 3, -0.25, 785, 3, -0.25
*EQUATION
3
1195, 1, 1.0, 785, 1, -0.5, 833, 1, -0.5
*EQUATION
3
1195, 2, 1.0, 785, 2, -0.5, 833, 2, -0.5
*EQUATION
3
1195, 3, 1.0, 785, 3, -0.5, 833, 3, -0.5
*EQUATION
3
1197, 1, 1.0, 786, 1, -0.5, 834, 1, -0.5
*EQUATION
3
1197, 2, 1.0, 786, 2, -0.5, 834, 2, -0.5
*EQUATION
3
1197, 3, 1.0, 786, 3, -0.5, 834, 3, -0.5
*EQUATION
3
1198, 1, 1.0, 826, 1, -0.5, 833, 1, -0.5
*EQUATION
3
1198, 2, 1.0, 826, 2, -0.5, 833, 2, -0.5
*EQUATION
3
1198, 3, 1.0, 826, 3, -0.5, 833, 3, -0.5
*EQUATION
5
1202, 1, 1.0, 779, 1, -0.25, 827, 1, -0.25, 847, 1, -0.25, 799, 1, -0.25
*EQUATION
5
1202, 2, 1.0, 779, 2, -0.25, 827, 2, -0.25, 847, 2, -0.25, 799, 2, -0.25
*EQUATION
5
1202, 3, 1.0, 779, 3, -0.25, 827, 3, -0.25, 847, 3, -0.25, 799, 3, -0.25
*EQUATION
3
1203, 1, 1.0, 799, 1, -0.5, 847, 1, -0.5
*EQUATION
3
1203, 2, 1.0, 799, 2, -0.5, 847, 2, -0.5
*EQUATION
3
1203, 3, 1.0, 799, 3, -0.5, 847, 3, -0.5
*EQUATION
5
1205, 1, 1.0, 799, 1, -0.25, 847, 1, -0.25, 849, 1, -0.25, 801, 1, -0.25
*EQUATION
5
1205, 2, 1.0, 799, 2, -0.25, 847, 2, -0.25, 849, 2, -0.25, 801, 2, -0.25
*EQUATION
5
1205, 3, 1.0, 799, 3, -0.25, 847, 3, -0.25, 849, 3, -0.25, 801, 3, -0.25
*EQUATION
3
1207, 1, 1.0, 801, 1, -0.5, 849, 1, -0.5
*EQUATION
3
1207, 2, 1.0, 801, 2, -0.5, 849, 2, -0.5
*EQUATION
3
1207, 3, 1.0, 801, 3, -0.5, 849, 3, -0.5
*EQUATION
3
1208, 1, 1.0, 827, 1, -0.5, 847, 1, -0.5
*EQUATION
3
1208, 2, 1.0, 827, 2, -0.5, 847, 2, -0.5
*EQUATION
3
1208, 3, 1.0, 827, 3, -0.5, 847, 3, -0.5
*EQUATION
3
1210, 1, 1.0, 847, 1, -0.5, 849, 1, -0.5
*EQUATION
3
1210, 2, 1.0, 847, 2, -0.5, 849, 2, -0.5
*EQUATION
3
1210, 3, 1.0, 847, 3, -0.5, 849, 3, -0.5
*EQUATION
5
1213, 1, 1.0, 801, 1, -0.25, 849, 1, -0.25, 851, 1, -0.25, 803, 1, -0.25
*EQUATION
5
1213, 2, 1.0, 801, 2, -0.25, 849, 2, -0.25, 851, 2, -0.25, 803, 2, -0.25
*EQUATION
5
1213, 3, 1.0, 801, 3, -0.25, 849, 3, -0.25, 851, 3, -0.25, 803, 3, -0.25
*EQUATION
5
1214, 1, 1.0, 786, 1, -0.25, 834, 1, -0.25, 851, 1, -0.25, 803, 1, -0.25
*EQUATION
5
1214, 2, 1.0, 786, 2, -0.25, 834, 2, -0.25, 851, 2, -0.25, 803, 2, -0.25
*EQUATION
5
1214, 3, 1.0, 786, 3, -0.25, 834, 3, -0.25, 851, 3, -0.25, 803, 3, -0.25
*EQUATION
3
1215, 1, 1.0, 803, 1, -0.5, 851, 1, -0.5
*EQUATION
3
1215, 2, 1.0, 803, 2, -0.5, 851, 2, -0.5
*EQUATION
3
1215, 3, 1.0, 803, 3, -0.5, 851, 3, -0.5
*EQUATION
3
1217, 1, 1.0, 849, 1, -0.5, 851, 1, -0.5
*EQUATION
3
1217, 2, 1.0, 849, 2, -0.5, 851, 2, -0.5
*EQUATION
3
1217, 3, 1.0, 849, 3, -0.5, 851, 3, -0.5
*EQUATION
3
1218, 1, 1.0, 834, 1, -0.5, 851, 1, -0.5
*EQUATION
3
1218, 2, 1.0, 834, 2, -0.5, 851, 2, -0.5
*EQUATION
3
1218, 3, 1.0, 834, 3, -0.5, 851, 3, -0.5
*EQUATION
3
1219, 1, 1.0, 825, 1, -0.5, 873, 1, -0.5
*EQUATION
3
1219, 2, 1.0, 825, 2, -0.5, 873, 2, -0.5
*EQUATION
3
1219, 3, 1.0, 825, 3, -0.5, 873, 3, -0.5
*EQUATION
3
1221, 1, 1.0, 827, 1, -0.5, 875, 1, -0.5
*EQUATION
3
1221, 2, 1.0, 827, 2, -0.5, 875, 2, -0.5
*EQUATION
3
1221, 3, 1.0, 827, 3, -0.5, 875, 3, -0.5
*EQUATION
5
1222, 1, 1.0, 825, 1, -0.25, 873, 1, -0.25, 874, 1, -0.25, 826, 1, -0.25
*EQUATION
5
1222, 2, 1.0, 825, 2, -0.25, 873, 2, -0.25, 874, 2, -0.25, 826, 2, -0.25
*EQUATION
5
1222, 3, 1.0, 825, 3, -0.25, 873, 3, -0.25, 874, 3, -0.25, 826, 3, -0.25
*EQUATION
3
1225, 1, 1.0, 826, 1, -0.5, 874, 1, -0.5
*EQUATION
3
1225, 2, 1.0, 826, 2, -0.5, 874, 2, -0.5
*EQUATION
3
1225, 3, 1.0, 826, 3, -0.5, 874, 3, -0.5
*EQUATION
3
1229, 1, 1.0, 873, 1, -0.5, 874, 1, -0.5
*EQUATION
3
1229, 2, 1.0, 873, 2, -0.5, 874, 2, -0.5
*EQUATION
3
1229, 3, 1.0, 873, 3, -0.5, 874, 3, -0.5
*EQUATION
5
1233, 1, 1.0, 826, 1, -0.25, 874, 1, -0.25, 881, 1, -0.25, 833, 1, -0.25
*EQUATION
5
1233, 2, 1.0, 826, 2, -0.25, 874, 2, -0.25, 881, 2, -0.25, 833, 2, -0.25
*EQUATION
5
1233, 3, 1.0, 826, 3, -0.25, 874, 3, -0.25, 881, 3, -0.25, 833, 3, -0.25
*EQUATION
3
1236, 1, 1.0, 833, 1, -0.5, 881, 1, -0.5
*EQUATION
3
1236, 2, 1.0, 833, 2, -0.5, 881, 2, -0.5
*EQUATION
3
1236, 3, 1.0, 833, 3, -0.5, 881, 3, -0.5
*EQUATION
3
1238, 1, 1.0, 834, 1, -0.5, 882, 1, -0.5
*EQUATION
3
1238, 2, 1.0, 834, 2, -0.5, 882, 2, -0.5
*EQUATION
3
1238, 3, 1.0, 834, 3, -0.5, 882, 3, -0.5
*EQUATION
3
1239, 1, 1.0, 874, 1, -0.5, 881, 1, -0.5
*EQUATION
3
1239, 2, 1.0, 874, 2, -0.5, 881, 2, -0.5
*EQUATION
3
1239, 3, 1.0, 874, 3, -0.5, 881, 3, -0.5
*EQUATION
5
1243, 1, 1.0, 827, 1, -0.25, 875, 1, -0.25, 895, 1, -0.25, 847, 1, -0.25
*EQUATION
5
1243, 2, 1.0, 827, 2, -0.25, 875, 2, -0.25, 895, 2, -0.25, 847, 2, -0.25
*EQUATION
5
1243, 3, 1.0, 827, 3, -0.25, 875, 3, -0.25, 895, 3, -0.25, 847, 3, -0.25
*EQUATION
3
1244, 1, 1.0, 847, 1, -0.5, 895, 1, -0.5
*EQUATION
3
1244, 2, 1.0, 847, 2, -0.5, 895, 2, -0.5
*EQUATION
3
1244, 3, 1.0, 847, 3, -0.5, 895, 3, -0.5
*EQUATION
5
1246, 1, 1.0, 847, 1, -0.25, 895, 1, -0.25, 897, 1, -0.25, 849, 1, -0.25
*EQUATION
5
1246, 2, 1.0, 847, 2, -0.25, 895, 2, -0.25, 897, 2, -0.25, 849, 2, -0.25
*EQUATION
5
1246, 3, 1.0, 847, 3, -0.25, 895, 3, -0.25, 897, 3, -0.25, 849, 3, -0.25
*EQUATION
3
1248, 1, 1.0, 849, 1, -0.5, 897, 1, -0.5
*EQUATION
3
1248, 2, 1.0, 849, 2, -0.5, 897, 2, -0.5
*EQUATION
3
1248, 3, 1.0, 849, 3, -0.5, 897, 3, -0.5
*EQUATION
3
1249, 1, 1.0, 875, 1, -0.5, 895, 1, -0.5
*EQUATION
3
1249, 2, 1.0, 875, 2, -0.5, 895, 2, -0.5
*EQUATION
3
1249, 3, 1.0, 875, 3, -0.5, 895, 3, -0.5
*EQUATION
3
1251, 1, 1.0, 895, 1, -0.5, 897, 1, -0.5
*EQUATION
3
1251, 2, 1.0, 895, 2, -0.5, 897, 2, -0.5
*EQUATION
3
1251, 3, 1.0, 895, 3, -0.5, 897, 3, -0.5
*EQUATION
5
1254, 1, 1.0, 849, 1, -0.25, 897, 1, -0.25, 899, 1, -0.25, 851, 1, -0.25
*EQUATION
5
1254, 2, 1.0, 849, 2, -0.25, 897, 2, -0.25, 899, 2, -0.25, 851, 2, -0.25
*EQUATION
5
1254, 3, 1.0, 849, 3, -0.25, 897, 3, -0.25, 899, 3, -0.25, 851, 3, -0.25
*EQUATION
5
1255, 1, 1.0, 834, 1, -0.25, 882, 1, -0.25, 899, 1, -0.25, 851, 1, -0.25
*EQUATION
5
1255, 2, 1.0, 834, 2, -0.25, 882, 2, -0.25, 899, 2, -0.25, 851, 2, -0.25
*EQUATION
5
1255, 3, 1.0, 834, 3, -0.25, 882, 3, -0.25, 899, 3, -0.25, 851, 3, -0.25
*EQUATION
3
1256, 1, 1.0, 851, 1, -0.5, 899, 1, -0.5
*EQUATION
3
1256, 2, 1.0, 851, 2, -0.5, 899, 2, -0.5
*EQUATION
3
1256, 3, 1.0, 851, 3, -0.5, 899, 3, -0.5
*EQUATION
3
1258, 1, 1.0, 897, 1, -0.5, 899, 1, -0.5
*EQUATION
3
1258, 2, 1.0, 897, 2, -0.5, 899, 2, -0.5
*EQUATION
3
1258, 3, 1.0, 897, 3, -0.5, 899, 3, -0.5
*EQUATION
3
1259, 1, 1.0, 882, 1, -0.5, 899, 1, -0.5
*EQUATION
3
1259, 2, 1.0, 882, 2, -0.5, 899, 2, -0.5
*EQUATION
3
1259, 3, 1.0, 882, 3, -0.5, 899, 3, -0.5
*BOUNDARY
CLAMP, 1, 3, 0.0
*STEP
*STATIC
*CLOAD
887, 3, -454.545454545
888, 3, -454.545454545
891, 3, -454.545454545
894, 3, -454.545454545
896, 3, -454.545454545
898, 3, -454.545454545
900, 3, -454.545454545
903, 3, -454.545454545
906, 3, -454.545454545
909, 3, -454.545454545
912, 3, -454.545454545
*NODE FILE
U
*EL FILE
S, ENER
*NODE PRINT, NSET=TIP_TOP
U
*NODE PRINT, NSET=CLAMP
RF
*EL PRINT, ELSET=EALL
ELSE
*ENERGY PRINT
*END STEP
