*HEADING
T01 S-KIN t01_s-kin_delegated conforming C3D8 frozen T
units: mm, N, s, MPa, t. Illustrative steel, not a coupon card.
beam=T01 case=S-KIN job=t01_s-kin_delegated type=C3D8
E=210000.0 nu=0.3 fy=235.0 load=-39550.5 N on TIP_TOP
*NODE, NSET=NALL
1, 0, -10, 0
2, 38, -10, 2.28
3, 38, 0, 2.28
4, 0, 0, 0
5, 0, -10, 40
6, 38, -10, 41.824
7, 38, 0, 41.824
8, 0, 0, 40
9, 0, -10, 80
10, 38, -10, 81.368
11, 38, 0, 81.368
12, 0, 0, 80
13, 0, -10, 120
14, 38, -10, 120.912
15, 38, 0, 120.912
16, 0, 0, 120
17, 0, -10, 160
18, 38, -10, 160.456
19, 38, 0, 160.456
20, 0, 0, 160
** ... 1996 like lines cut
*ELEMENT, TYPE=C3D8, ELSET=EALL
1, 1, 2, 3, 4, 5, 6, 7, 8
2, 5, 6, 7, 8, 9, 10, 11, 12
3, 9, 10, 11, 12, 13, 14, 15, 16
4, 13, 14, 15, 16, 17, 18, 19, 20
5, 17, 18, 19, 20, 21, 22, 23, 24
6, 4, 3, 25, 26, 8, 7, 27, 28
7, 8, 7, 27, 28, 12, 11, 29, 30
8, 12, 11, 29, 30, 16, 15, 31, 32
9, 16, 15, 31, 32, 20, 19, 33, 34
10, 20, 19, 33, 34, 24, 23, 35, 36
11, 37, 38, 39, 40, 41, 42, 43, 44
12, 41, 42, 43, 44, 45, 46, 47, 48
13, 40, 39, 49, 50, 44, 43, 51, 52
14, 44, 43, 51, 52, 48, 47, 53, 54
15, 50, 49, 55, 56, 52, 51, 57, 58
16, 52, 51, 57, 58, 54, 53, 59, 60
17, 56, 55, 22, 21, 58, 57, 61, 62
18, 58, 57, 61, 62, 60, 59, 63, 64
19, 21, 22, 23, 24, 62, 61, 65, 66
20, 62, 61, 65, 66, 64, 63, 67, 68
** ... 1210 like lines cut
*NSET, NSET=CLAMP
1, 4, 5, 8, 9, 12, 13, 16, 17, 20, 21, 24, 26, 28, 30, 32
34, 36, 37, 40, 41, 44, 45, 48, 50, 52, 54, 56, 58, 60, 62, 64
66, 68, 70, 72, 74, 76, 78, 80, 82, 84, 86, 88, 90, 92, 94, 96
*NSET, NSET=TIP_TOP
1991, 1992, 1995, 1998, 2000, 2002, 2004, 2007, 2010, 2013, 2016
*NSET, NSET=TIP_FLANGE
1991, 1992, 1995, 1998, 2000, 2002, 2004, 2007, 2010, 2013, 2016
*MATERIAL, NAME=STEEL
*ELASTIC
210000, 0.3
*PLASTIC, HARDENING=KINEMATIC
235, 0
320, 0.02
400, 0.15
*DENSITY
7.85e-09
*SOLID SECTION, ELSET=EALL, MATERIAL=STEEL
*BOUNDARY
CLAMP, 1, 3, 0.0
*STEP, NLGEOM, INC=80
*STATIC
0.05, 1.0, 1.0e-6, 0.1
*CLOAD
1991, 3, -3595.5
1992, 3, -3595.5
1995, 3, -3595.5
1998, 3, -3595.5
2000, 3, -3595.5
2002, 3, -3595.5
2004, 3, -3595.5
2007, 3, -3595.5
2010, 3, -3595.5
2013, 3, -3595.5
2016, 3, -3595.5
*NODE FILE
U
*EL FILE
S, PEEQ, ENER
*NODE PRINT, NSET=TIP_TOP
U
*NODE PRINT, NSET=CLAMP
RF
*EL PRINT, ELSET=EALL
ELSE
*ENERGY PRINT
*END STEP
*STEP, NLGEOM, INC=80
*STATIC
0.05, 1.0, 1.0e-6, 0.1
*CLOAD
1991, 3, 1797.75
1992, 3, 1797.75
1995, 3, 1797.75
1998, 3, 1797.75
2000, 3, 1797.75
2002, 3, 1797.75
2004, 3, 1797.75
2007, 3, 1797.75
2010, 3, 1797.75
2013, 3, 1797.75
2016, 3, 1797.75
*NODE FILE
U
*EL FILE
S, PEEQ, ENER
*NODE PRINT, NSET=TIP_TOP
U
*NODE PRINT, NSET=CLAMP
RF
*EL PRINT, ELSET=EALL
ELSE
*ENERGY PRINT
*END STEP
