*HEADING
T09 S-LIN hanging 8-split zz cycle 2
units: mm, N, s, MPa. Material is illustrative steel, not a coupon card.
E=210000.0 nu=0.3. load -5000.0 N on TIP_TOP.
*NODE, NSET=NALL
1, 0, -14, 6
2, 111.111111111, -14, 6
3, 111.111111111, 0, 6
4, 0, 0, 6
5, 0, -14, 44
6, 111.111111111, -14, 44
7, 111.111111111, 0, 44
8, 0, 0, 44
9, 0, -14, 82
10, 111.111111111, -14, 82
11, 111.111111111, 0, 82
12, 0, 0, 82
13, 0, -14, 120
14, 111.111111111, -14, 120
15, 111.111111111, 0, 120
16, 0, 0, 120
17, 0, -14, 158
18, 111.111111111, -14, 158
19, 111.111111111, 0, 158
20, 0, 0, 158
** ... 1618 like lines cut
*ELEMENT, TYPE=C3D8, ELSET=EALL
1, 1, 2, 3, 4, 5, 6, 7, 8
2, 5, 6, 7, 8, 9, 10, 11, 12
3, 9, 10, 11, 12, 13, 14, 15, 16
4, 13, 14, 15, 16, 17, 18, 19, 20
5, 17, 18, 19, 20, 21, 22, 23, 24
6, 4, 3, 25, 26, 8, 7, 27, 28
7, 8, 7, 27, 28, 12, 11, 29, 30
8, 12, 11, 29, 30, 16, 15, 31, 32
9, 16, 15, 31, 32, 20, 19, 33, 34
10, 20, 19, 33, 34, 24, 23, 35, 36
11, 37, 38, 39, 40, 41, 42, 43, 44
12, 41, 42, 43, 44, 45, 46, 47, 48
13, 40, 39, 49, 50, 44, 43, 51, 52
14, 44, 43, 51, 52, 48, 47, 53, 54
15, 50, 49, 55, 56, 52, 51, 57, 58
16, 52, 51, 57, 58, 54, 53, 59, 60
17, 56, 55, 22, 21, 58, 57, 61, 62
18, 58, 57, 61, 62, 60, 59, 63, 64
19, 21, 22, 23, 24, 62, 61, 65, 66
20, 62, 61, 65, 66, 64, 63, 67, 68
** ... 912 like lines cut
*NSET, NSET=CLAMP
1, 4, 5, 8, 9, 12, 13, 16, 17, 20, 21, 24, 26, 28, 30, 32
34, 36, 37, 40, 41, 44, 45, 48, 50, 52, 54, 56, 58, 60, 62, 64
66, 68, 70, 72, 74, 76, 78, 80, 82, 84, 86, 88, 90, 92, 94, 96
*NSET, NSET=TIP_TOP
887, 888, 891, 894, 896, 898, 900, 903, 906, 909, 912
*MATERIAL, NAME=STEEL
*ELASTIC
210000, 0.3
*SOLID SECTION, ELSET=EALL, MATERIAL=STEEL
*EQUATION
3
913, 1, 1.0, 509, 1, -0.5, 510, 1, -0.5
*EQUATION
3
913, 2, 1.0, 509, 2, -0.5, 510, 2, -0.5
*EQUATION
3
913, 3, 1.0, 509, 3, -0.5, 510, 3, -0.5
*EQUATION
3
914, 1, 1.0, 509, 1, -0.5, 511, 1, -0.5
*EQUATION
3
914, 2, 1.0, 509, 2, -0.5, 511, 2, -0.5
*EQUATION
3
914, 3, 1.0, 509, 3, -0.5, 511, 3, -0.5
*EQUATION
5
915, 1, 1.0, 509, 1, -0.25, 511, 1, -0.25, 512, 1, -0.25, 510, 1, -0.25
*EQUATION
5
915, 2, 1.0, 509, 2, -0.25, 511, 2, -0.25, 512, 2, -0.25, 510, 2, -0.25
*EQUATION
5
915, 3, 1.0, 509, 3, -0.25, 511, 3, -0.25, 512, 3, -0.25, 510, 3, -0.25
*EQUATION
3
916, 1, 1.0, 510, 1, -0.5, 512, 1, -0.5
*EQUATION
3
916, 2, 1.0, 510, 2, -0.5, 512, 2, -0.5
*EQUATION
3
916, 3, 1.0, 510, 3, -0.5, 512, 3, -0.5
*EQUATION
3
917, 1, 1.0, 511, 1, -0.5, 512, 1, -0.5
*EQUATION
3
917, 2, 1.0, 511, 2, -0.5, 512, 2, -0.5
*EQUATION
3
917, 3, 1.0, 511, 3, -0.5, 512, 3, -0.5
*EQUATION
3
918, 1, 1.0, 509, 1, -0.5, 557, 1, -0.5
*EQUATION
3
918, 2, 1.0, 509, 2, -0.5, 557, 2, -0.5
*EQUATION
3
918, 3, 1.0, 509, 3, -0.5, 557, 3, -0.5
*EQUATION
5
919, 1, 1.0, 509, 1, -0.25, 557, 1, -0.25, 558, 1, -0.25, 510, 1, -0.25
*EQUATION
5
919, 2, 1.0, 509, 2, -0.25, 557, 2, -0.25, 558, 2, -0.25, 510, 2, -0.25
*EQUATION
5
919, 3, 1.0, 509, 3, -0.25, 557, 3, -0.25, 558, 3, -0.25, 510, 3, -0.25
*EQUATION
3
920, 1, 1.0, 510, 1, -0.5, 558, 1, -0.5
*EQUATION
3
920, 2, 1.0, 510, 2, -0.5, 558, 2, -0.5
*EQUATION
3
920, 3, 1.0, 510, 3, -0.5, 558, 3, -0.5
*EQUATION
5
921, 1, 1.0, 509, 1, -0.25, 557, 1, -0.25, 559, 1, -0.25, 511, 1, -0.25
*EQUATION
5
921, 2, 1.0, 509, 2, -0.25, 557, 2, -0.25, 559, 2, -0.25, 511, 2, -0.25
*EQUATION
5
921, 3, 1.0, 509, 3, -0.25, 557, 3, -0.25, 559, 3, -0.25, 511, 3, -0.25
*EQUATION
3
924, 1, 1.0, 511, 1, -0.5, 559, 1, -0.5
*EQUATION
3
924, 2, 1.0, 511, 2, -0.5, 559, 2, -0.5
*EQUATION
3
924, 3, 1.0, 511, 3, -0.5, 559, 3, -0.5
*EQUATION
5
925, 1, 1.0, 511, 1, -0.25, 559, 1, -0.25, 560, 1, -0.25, 512, 1, -0.25
*EQUATION
5
925, 2, 1.0, 511, 2, -0.25, 559, 2, -0.25, 560, 2, -0.25, 512, 2, -0.25
*EQUATION
5
925, 3, 1.0, 511, 3, -0.25, 559, 3, -0.25, 560, 3, -0.25, 512, 3, -0.25
*EQUATION
3
926, 1, 1.0, 512, 1, -0.5, 560, 1, -0.5
*EQUATION
3
926, 2, 1.0, 512, 2, -0.5, 560, 2, -0.5
*EQUATION
3
926, 3, 1.0, 512, 3, -0.5, 560, 3, -0.5
*EQUATION
3
927, 1, 1.0, 557, 1, -0.5, 558, 1, -0.5
*EQUATION
3
927, 2, 1.0, 557, 2, -0.5, 558, 2, -0.5
*EQUATION
3
927, 3, 1.0, 557, 3, -0.5, 558, 3, -0.5
*EQUATION
3
928, 1, 1.0, 557, 1, -0.5, 559, 1, -0.5
*EQUATION
3
928, 2, 1.0, 557, 2, -0.5, 559, 2, -0.5
*EQUATION
3
928, 3, 1.0, 557, 3, -0.5, 559, 3, -0.5
*EQUATION
3
931, 1, 1.0, 559, 1, -0.5, 560, 1, -0.5
*EQUATION
3
931, 2, 1.0, 559, 2, -0.5, 560, 2, -0.5
*EQUATION
3
931, 3, 1.0, 559, 3, -0.5, 560, 3, -0.5
*EQUATION
3
932, 1, 1.0, 515, 1, -0.5, 516, 1, -0.5
*EQUATION
3
932, 2, 1.0, 515, 2, -0.5, 516, 2, -0.5
*EQUATION
3
932, 3, 1.0, 515, 3, -0.5, 516, 3, -0.5
*EQUATION
3
933, 1, 1.0, 515, 1, -0.5, 518, 1, -0.5
*EQUATION
3
933, 2, 1.0, 515, 2, -0.5, 518, 2, -0.5
*EQUATION
3
933, 3, 1.0, 515, 3, -0.5, 518, 3, -0.5
*EQUATION
5
934, 1, 1.0, 515, 1, -0.25, 518, 1, -0.25, 519, 1, -0.25, 516, 1, -0.25
*EQUATION
5
934, 2, 1.0, 515, 2, -0.25, 518, 2, -0.25, 519, 2, -0.25, 516, 2, -0.25
*EQUATION
5
934, 3, 1.0, 515, 3, -0.25, 518, 3, -0.25, 519, 3, -0.25, 516, 3, -0.25
*EQUATION
3
935, 1, 1.0, 516, 1, -0.5, 519, 1, -0.5
*EQUATION
3
935, 2, 1.0, 516, 2, -0.5, 519, 2, -0.5
*EQUATION
3
935, 3, 1.0, 516, 3, -0.5, 519, 3, -0.5
*EQUATION
3
936, 1, 1.0, 518, 1, -0.5, 519, 1, -0.5
*EQUATION
3
936, 2, 1.0, 518, 2, -0.5, 519, 2, -0.5
*EQUATION
3
936, 3, 1.0, 518, 3, -0.5, 519, 3, -0.5
*EQUATION
3
937, 1, 1.0, 515, 1, -0.5, 563, 1, -0.5
*EQUATION
3
937, 2, 1.0, 515, 2, -0.5, 563, 2, -0.5
*EQUATION
3
937, 3, 1.0, 515, 3, -0.5, 563, 3, -0.5
*EQUATION
5
938, 1, 1.0, 515, 1, -0.25, 563, 1, -0.25, 564, 1, -0.25, 516, 1, -0.25
*EQUATION
5
938, 2, 1.0, 515, 2, -0.25, 563, 2, -0.25, 564, 2, -0.25, 516, 2, -0.25
*EQUATION
5
938, 3, 1.0, 515, 3, -0.25, 563, 3, -0.25, 564, 3, -0.25, 516, 3, -0.25
*EQUATION
3
939, 1, 1.0, 516, 1, -0.5, 564, 1, -0.5
*EQUATION
3
939, 2, 1.0, 516, 2, -0.5, 564, 2, -0.5
*EQUATION
3
939, 3, 1.0, 516, 3, -0.5, 564, 3, -0.5
*EQUATION
5
940, 1, 1.0, 515, 1, -0.25, 563, 1, -0.25, 566, 1, -0.25, 518, 1, -0.25
*EQUATION
5
940, 2, 1.0, 515, 2, -0.25, 563, 2, -0.25, 566, 2, -0.25, 518, 2, -0.25
*EQUATION
5
940, 3, 1.0, 515, 3, -0.25, 563, 3, -0.25, 566, 3, -0.25, 518, 3, -0.25
*EQUATION
3
943, 1, 1.0, 518, 1, -0.5, 566, 1, -0.5
*EQUATION
3
943, 2, 1.0, 518, 2, -0.5, 566, 2, -0.5
*EQUATION
3
943, 3, 1.0, 518, 3, -0.5, 566, 3, -0.5
*EQUATION
5
944, 1, 1.0, 518, 1, -0.25, 566, 1, -0.25, 567, 1, -0.25, 519, 1, -0.25
*EQUATION
5
944, 2, 1.0, 518, 2, -0.25, 566, 2, -0.25, 567, 2, -0.25, 519, 2, -0.25
*EQUATION
5
944, 3, 1.0, 518, 3, -0.25, 566, 3, -0.25, 567, 3, -0.25, 519, 3, -0.25
*EQUATION
3
945, 1, 1.0, 519, 1, -0.5, 567, 1, -0.5
*EQUATION
3
945, 2, 1.0, 519, 2, -0.5, 567, 2, -0.5
*EQUATION
3
945, 3, 1.0, 519, 3, -0.5, 567, 3, -0.5
*EQUATION
3
946, 1, 1.0, 563, 1, -0.5, 564, 1, -0.5
*EQUATION
3
946, 2, 1.0, 563, 2, -0.5, 564, 2, -0.5
*EQUATION
3
946, 3, 1.0, 563, 3, -0.5, 564, 3, -0.5
*EQUATION
3
947, 1, 1.0, 563, 1, -0.5, 566, 1, -0.5
*EQUATION
3
947, 2, 1.0, 563, 2, -0.5, 566, 2, -0.5
*EQUATION
3
947, 3, 1.0, 563, 3, -0.5, 566, 3, -0.5
*EQUATION
3
950, 1, 1.0, 566, 1, -0.5, 567, 1, -0.5
*EQUATION
3
950, 2, 1.0, 566, 2, -0.5, 567, 2, -0.5
*EQUATION
3
950, 3, 1.0, 566, 3, -0.5, 567, 3, -0.5
*EQUATION
3
951, 1, 1.0, 524, 1, -0.5, 525, 1, -0.5
*EQUATION
3
951, 2, 1.0, 524, 2, -0.5, 525, 2, -0.5
*EQUATION
3
951, 3, 1.0, 524, 3, -0.5, 525, 3, -0.5
*EQUATION
3
952, 1, 1.0, 524, 1, -0.5, 527, 1, -0.5
*EQUATION
3
952, 2, 1.0, 524, 2, -0.5, 527, 2, -0.5
*EQUATION
3
952, 3, 1.0, 524, 3, -0.5, 527, 3, -0.5
*EQUATION
5
953, 1, 1.0, 524, 1, -0.25, 527, 1, -0.25, 528, 1, -0.25, 525, 1, -0.25
*EQUATION
5
953, 2, 1.0, 524, 2, -0.25, 527, 2, -0.25, 528, 2, -0.25, 525, 2, -0.25
*EQUATION
5
953, 3, 1.0, 524, 3, -0.25, 527, 3, -0.25, 528, 3, -0.25, 525, 3, -0.25
*EQUATION
3
954, 1, 1.0, 525, 1, -0.5, 528, 1, -0.5
*EQUATION
3
954, 2, 1.0, 525, 2, -0.5, 528, 2, -0.5
*EQUATION
3
954, 3, 1.0, 525, 3, -0.5, 528, 3, -0.5
*EQUATION
3
955, 1, 1.0, 527, 1, -0.5, 528, 1, -0.5
*EQUATION
3
955, 2, 1.0, 527, 2, -0.5, 528, 2, -0.5
*EQUATION
3
955, 3, 1.0, 527, 3, -0.5, 528, 3, -0.5
*EQUATION
3
956, 1, 1.0, 524, 1, -0.5, 572, 1, -0.5
*EQUATION
3
956, 2, 1.0, 524, 2, -0.5, 572, 2, -0.5
*EQUATION
3
956, 3, 1.0, 524, 3, -0.5, 572, 3, -0.5
*EQUATION
5
957, 1, 1.0, 524, 1, -0.25, 572, 1, -0.25, 573, 1, -0.25, 525, 1, -0.25
*EQUATION
5
957, 2, 1.0, 524, 2, -0.25, 572, 2, -0.25, 573, 2, -0.25, 525, 2, -0.25
*EQUATION
5
957, 3, 1.0, 524, 3, -0.25, 572, 3, -0.25, 573, 3, -0.25, 525, 3, -0.25
*EQUATION
3
958, 1, 1.0, 525, 1, -0.5, 573, 1, -0.5
*EQUATION
3
958, 2, 1.0, 525, 2, -0.5, 573, 2, -0.5
*EQUATION
3
958, 3, 1.0, 525, 3, -0.5, 573, 3, -0.5
*EQUATION
5
959, 1, 1.0, 524, 1, -0.25, 572, 1, -0.25, 575, 1, -0.25, 527, 1, -0.25
*EQUATION
5
959, 2, 1.0, 524, 2, -0.25, 572, 2, -0.25, 575, 2, -0.25, 527, 2, -0.25
*EQUATION
5
959, 3, 1.0, 524, 3, -0.25, 572, 3, -0.25, 575, 3, -0.25, 527, 3, -0.25
*EQUATION
3
962, 1, 1.0, 527, 1, -0.5, 575, 1, -0.5
*EQUATION
3
962, 2, 1.0, 527, 2, -0.5, 575, 2, -0.5
*EQUATION
3
962, 3, 1.0, 527, 3, -0.5, 575, 3, -0.5
*EQUATION
3
965, 1, 1.0, 572, 1, -0.5, 573, 1, -0.5
*EQUATION
3
965, 2, 1.0, 572, 2, -0.5, 573, 2, -0.5
*EQUATION
3
965, 3, 1.0, 572, 3, -0.5, 573, 3, -0.5
*EQUATION
3
966, 1, 1.0, 572, 1, -0.5, 575, 1, -0.5
*EQUATION
3
966, 2, 1.0, 572, 2, -0.5, 575, 2, -0.5
*EQUATION
3
966, 3, 1.0, 572, 3, -0.5, 575, 3, -0.5
*EQUATION
3
970, 1, 1.0, 547, 1, -0.5, 549, 1, -0.5
*EQUATION
3
970, 2, 1.0, 547, 2, -0.5, 549, 2, -0.5
*EQUATION
3
970, 3, 1.0, 547, 3, -0.5, 549, 3, -0.5
*EQUATION
3
971, 1, 1.0, 547, 1, -0.5, 548, 1, -0.5
*EQUATION
3
971, 2, 1.0, 547, 2, -0.5, 548, 2, -0.5
*EQUATION
3
971, 3, 1.0, 547, 3, -0.5, 548, 3, -0.5
*EQUATION
5
972, 1, 1.0, 547, 1, -0.25, 548, 1, -0.25, 550, 1, -0.25, 549, 1, -0.25
*EQUATION
5
972, 2, 1.0, 547, 2, -0.25, 548, 2, -0.25, 550, 2, -0.25, 549, 2, -0.25
*EQUATION
5
972, 3, 1.0, 547, 3, -0.25, 548, 3, -0.25, 550, 3, -0.25, 549, 3, -0.25
*EQUATION
3
973, 1, 1.0, 549, 1, -0.5, 550, 1, -0.5
*EQUATION
3
973, 2, 1.0, 549, 2, -0.5, 550, 2, -0.5
*EQUATION
3
973, 3, 1.0, 549, 3, -0.5, 550, 3, -0.5
*EQUATION
3
974, 1, 1.0, 548, 1, -0.5, 550, 1, -0.5
*EQUATION
3
974, 2, 1.0, 548, 2, -0.5, 550, 2, -0.5
*EQUATION
3
974, 3, 1.0, 548, 3, -0.5, 550, 3, -0.5
*EQUATION
3
984, 1, 1.0, 595, 1, -0.5, 597, 1, -0.5
*EQUATION
3
984, 2, 1.0, 595, 2, -0.5, 597, 2, -0.5
*EQUATION
3
984, 3, 1.0, 595, 3, -0.5, 597, 3, -0.5
*EQUATION
3
985, 1, 1.0, 595, 1, -0.5, 596, 1, -0.5
*EQUATION
3
985, 2, 1.0, 595, 2, -0.5, 596, 2, -0.5
*EQUATION
3
985, 3, 1.0, 595, 3, -0.5, 596, 3, -0.5
*EQUATION
5
986, 1, 1.0, 595, 1, -0.25, 596, 1, -0.25, 598, 1, -0.25, 597, 1, -0.25
*EQUATION
5
986, 2, 1.0, 595, 2, -0.25, 596, 2, -0.25, 598, 2, -0.25, 597, 2, -0.25
*EQUATION
5
986, 3, 1.0, 595, 3, -0.25, 596, 3, -0.25, 598, 3, -0.25, 597, 3, -0.25
*EQUATION
3
987, 1, 1.0, 597, 1, -0.5, 598, 1, -0.5
*EQUATION
3
987, 2, 1.0, 597, 2, -0.5, 598, 2, -0.5
*EQUATION
3
987, 3, 1.0, 597, 3, -0.5, 598, 3, -0.5
*EQUATION
3
988, 1, 1.0, 596, 1, -0.5, 598, 1, -0.5
*EQUATION
3
988, 2, 1.0, 596, 2, -0.5, 598, 2, -0.5
*EQUATION
3
988, 3, 1.0, 596, 3, -0.5, 598, 3, -0.5
*EQUATION
3
989, 1, 1.0, 549, 1, -0.5, 551, 1, -0.5
*EQUATION
3
989, 2, 1.0, 549, 2, -0.5, 551, 2, -0.5
*EQUATION
3
989, 3, 1.0, 549, 3, -0.5, 551, 3, -0.5
*EQUATION
5
990, 1, 1.0, 549, 1, -0.25, 550, 1, -0.25, 552, 1, -0.25, 551, 1, -0.25
*EQUATION
5
990, 2, 1.0, 549, 2, -0.25, 550, 2, -0.25, 552, 2, -0.25, 551, 2, -0.25
*EQUATION
5
990, 3, 1.0, 549, 3, -0.25, 550, 3, -0.25, 552, 3, -0.25, 551, 3, -0.25
*EQUATION
3
991, 1, 1.0, 551, 1, -0.5, 552, 1, -0.5
*EQUATION
3
991, 2, 1.0, 551, 2, -0.5, 552, 2, -0.5
*EQUATION
3
991, 3, 1.0, 551, 3, -0.5, 552, 3, -0.5
*EQUATION
3
992, 1, 1.0, 550, 1, -0.5, 552, 1, -0.5
*EQUATION
3
992, 2, 1.0, 550, 2, -0.5, 552, 2, -0.5
*EQUATION
3
992, 3, 1.0, 550, 3, -0.5, 552, 3, -0.5
*EQUATION
3
999, 1, 1.0, 597, 1, -0.5, 599, 1, -0.5
*EQUATION
3
999, 2, 1.0, 597, 2, -0.5, 599, 2, -0.5
*EQUATION
3
999, 3, 1.0, 597, 3, -0.5, 599, 3, -0.5
*EQUATION
5
1000, 1, 1.0, 597, 1, -0.25, 598, 1, -0.25, 600, 1, -0.25, 599, 1, -0.25
*EQUATION
5
1000, 2, 1.0, 597, 2, -0.25, 598, 2, -0.25, 600, 2, -0.25, 599, 2, -0.25
*EQUATION
5
1000, 3, 1.0, 597, 3, -0.25, 598, 3, -0.25, 600, 3, -0.25, 599, 3, -0.25
*EQUATION
3
1001, 1, 1.0, 599, 1, -0.5, 600, 1, -0.5
*EQUATION
3
1001, 2, 1.0, 599, 2, -0.5, 600, 2, -0.5
*EQUATION
3
1001, 3, 1.0, 599, 3, -0.5, 600, 3, -0.5
*EQUATION
3
1002, 1, 1.0, 598, 1, -0.5, 600, 1, -0.5
*EQUATION
3
1002, 2, 1.0, 598, 2, -0.5, 600, 2, -0.5
*EQUATION
3
1002, 3, 1.0, 598, 3, -0.5, 600, 3, -0.5
*EQUATION
3
1003, 1, 1.0, 548, 1, -0.5, 553, 1, -0.5
*EQUATION
3
1003, 2, 1.0, 548, 2, -0.5, 553, 2, -0.5
*EQUATION
3
1003, 3, 1.0, 548, 3, -0.5, 553, 3, -0.5
*EQUATION
5
1004, 1, 1.0, 548, 1, -0.25, 553, 1, -0.25, 554, 1, -0.25, 550, 1, -0.25
*EQUATION
5
1004, 2, 1.0, 548, 2, -0.25, 553, 2, -0.25, 554, 2, -0.25, 550, 2, -0.25
*EQUATION
5
1004, 3, 1.0, 548, 3, -0.25, 553, 3, -0.25, 554, 3, -0.25, 550, 3, -0.25
*EQUATION
3
1005, 1, 1.0, 550, 1, -0.5, 554, 1, -0.5
*EQUATION
3
1005, 2, 1.0, 550, 2, -0.5, 554, 2, -0.5
*EQUATION
3
1005, 3, 1.0, 550, 3, -0.5, 554, 3, -0.5
*EQUATION
3
1006, 1, 1.0, 553, 1, -0.5, 554, 1, -0.5
*EQUATION
3
1006, 2, 1.0, 553, 2, -0.5, 554, 2, -0.5
*EQUATION
3
1006, 3, 1.0, 553, 3, -0.5, 554, 3, -0.5
*EQUATION
3
1013, 1, 1.0, 596, 1, -0.5, 601, 1, -0.5
*EQUATION
3
1013, 2, 1.0, 596, 2, -0.5, 601, 2, -0.5
*EQUATION
3
1013, 3, 1.0, 596, 3, -0.5, 601, 3, -0.5
*EQUATION
5
1014, 1, 1.0, 596, 1, -0.25, 601, 1, -0.25, 602, 1, -0.25, 598, 1, -0.25
*EQUATION
5
1014, 2, 1.0, 596, 2, -0.25, 601, 2, -0.25, 602, 2, -0.25, 598, 2, -0.25
*EQUATION
5
1014, 3, 1.0, 596, 3, -0.25, 601, 3, -0.25, 602, 3, -0.25, 598, 3, -0.25
*EQUATION
3
1015, 1, 1.0, 598, 1, -0.5, 602, 1, -0.5
*EQUATION
3
1015, 2, 1.0, 598, 2, -0.5, 602, 2, -0.5
*EQUATION
3
1015, 3, 1.0, 598, 3, -0.5, 602, 3, -0.5
*EQUATION
3
1016, 1, 1.0, 601, 1, -0.5, 602, 1, -0.5
*EQUATION
3
1016, 2, 1.0, 601, 2, -0.5, 602, 2, -0.5
*EQUATION
3
1016, 3, 1.0, 601, 3, -0.5, 602, 3, -0.5
*EQUATION
5
1017, 1, 1.0, 550, 1, -0.25, 554, 1, -0.25, 555, 1, -0.25, 552, 1, -0.25
*EQUATION
5
1017, 2, 1.0, 550, 2, -0.25, 554, 2, -0.25, 555, 2, -0.25, 552, 2, -0.25
*EQUATION
5
1017, 3, 1.0, 550, 3, -0.25, 554, 3, -0.25, 555, 3, -0.25, 552, 3, -0.25
*EQUATION
3
1018, 1, 1.0, 552, 1, -0.5, 555, 1, -0.5
*EQUATION
3
1018, 2, 1.0, 552, 2, -0.5, 555, 2, -0.5
*EQUATION
3
1018, 3, 1.0, 552, 3, -0.5, 555, 3, -0.5
*EQUATION
3
1019, 1, 1.0, 554, 1, -0.5, 555, 1, -0.5
*EQUATION
3
1019, 2, 1.0, 554, 2, -0.5, 555, 2, -0.5
*EQUATION
3
1019, 3, 1.0, 554, 3, -0.5, 555, 3, -0.5
*EQUATION
5
1024, 1, 1.0, 598, 1, -0.25, 602, 1, -0.25, 603, 1, -0.25, 600, 1, -0.25
*EQUATION
5
1024, 2, 1.0, 598, 2, -0.25, 602, 2, -0.25, 603, 2, -0.25, 600, 2, -0.25
*EQUATION
5
1024, 3, 1.0, 598, 3, -0.25, 602, 3, -0.25, 603, 3, -0.25, 600, 3, -0.25
*EQUATION
3
1025, 1, 1.0, 600, 1, -0.5, 603, 1, -0.5
*EQUATION
3
1025, 2, 1.0, 600, 2, -0.5, 603, 2, -0.5
*EQUATION
3
1025, 3, 1.0, 600, 3, -0.5, 603, 3, -0.5
*EQUATION
3
1026, 1, 1.0, 602, 1, -0.5, 603, 1, -0.5
*EQUATION
3
1026, 2, 1.0, 602, 2, -0.5, 603, 2, -0.5
*EQUATION
3
1026, 3, 1.0, 602, 3, -0.5, 603, 3, -0.5
*EQUATION
3
1027, 1, 1.0, 553, 1, -0.5, 556, 1, -0.5
*EQUATION
3
1027, 2, 1.0, 553, 2, -0.5, 556, 2, -0.5
*EQUATION
3
1027, 3, 1.0, 553, 3, -0.5, 556, 3, -0.5
*EQUATION
5
1028, 1, 1.0, 553, 1, -0.25, 556, 1, -0.25, 557, 1, -0.25, 554, 1, -0.25
*EQUATION
5
1028, 2, 1.0, 553, 2, -0.25, 556, 2, -0.25, 557, 2, -0.25, 554, 2, -0.25
*EQUATION
5
1028, 3, 1.0, 553, 3, -0.25, 556, 3, -0.25, 557, 3, -0.25, 554, 3, -0.25
*EQUATION
3
1029, 1, 1.0, 554, 1, -0.5, 557, 1, -0.5
*EQUATION
3
1029, 2, 1.0, 554, 2, -0.5, 557, 2, -0.5
*EQUATION
3
1029, 3, 1.0, 554, 3, -0.5, 557, 3, -0.5
*EQUATION
3
1030, 1, 1.0, 556, 1, -0.5, 557, 1, -0.5
*EQUATION
3
1030, 2, 1.0, 556, 2, -0.5, 557, 2, -0.5
*EQUATION
3
1030, 3, 1.0, 556, 3, -0.5, 557, 3, -0.5
*EQUATION
3
1037, 1, 1.0, 601, 1, -0.5, 604, 1, -0.5
*EQUATION
3
1037, 2, 1.0, 601, 2, -0.5, 604, 2, -0.5
*EQUATION
3
1037, 3, 1.0, 601, 3, -0.5, 604, 3, -0.5
*EQUATION
5
1038, 1, 1.0, 601, 1, -0.25, 604, 1, -0.25, 605, 1, -0.25, 602, 1, -0.25
*EQUATION
5
1038, 2, 1.0, 601, 2, -0.25, 604, 2, -0.25, 605, 2, -0.25, 602, 2, -0.25
*EQUATION
5
1038, 3, 1.0, 601, 3, -0.25, 604, 3, -0.25, 605, 3, -0.25, 602, 3, -0.25
*EQUATION
3
1039, 1, 1.0, 602, 1, -0.5, 605, 1, -0.5
*EQUATION
3
1039, 2, 1.0, 602, 2, -0.5, 605, 2, -0.5
*EQUATION
3
1039, 3, 1.0, 602, 3, -0.5, 605, 3, -0.5
*EQUATION
3
1040, 1, 1.0, 604, 1, -0.5, 605, 1, -0.5
*EQUATION
3
1040, 2, 1.0, 604, 2, -0.5, 605, 2, -0.5
*EQUATION
3
1040, 3, 1.0, 604, 3, -0.5, 605, 3, -0.5
*EQUATION
5
1041, 1, 1.0, 554, 1, -0.25, 557, 1, -0.25, 558, 1, -0.25, 555, 1, -0.25
*EQUATION
5
1041, 2, 1.0, 554, 2, -0.25, 557, 2, -0.25, 558, 2, -0.25, 555, 2, -0.25
*EQUATION
5
1041, 3, 1.0, 554, 3, -0.25, 557, 3, -0.25, 558, 3, -0.25, 555, 3, -0.25
*EQUATION
3
1042, 1, 1.0, 555, 1, -0.5, 558, 1, -0.5
*EQUATION
3
1042, 2, 1.0, 555, 2, -0.5, 558, 2, -0.5
*EQUATION
3
1042, 3, 1.0, 555, 3, -0.5, 558, 3, -0.5
*EQUATION
5
1047, 1, 1.0, 602, 1, -0.25, 605, 1, -0.25, 606, 1, -0.25, 603, 1, -0.25
*EQUATION
5
1047, 2, 1.0, 602, 2, -0.25, 605, 2, -0.25, 606, 2, -0.25, 603, 2, -0.25
*EQUATION
5
1047, 3, 1.0, 602, 3, -0.25, 605, 3, -0.25, 606, 3, -0.25, 603, 3, -0.25
*EQUATION
3
1048, 1, 1.0, 603, 1, -0.5, 606, 1, -0.5
*EQUATION
3
1048, 2, 1.0, 603, 2, -0.5, 606, 2, -0.5
*EQUATION
3
1048, 3, 1.0, 603, 3, -0.5, 606, 3, -0.5
*EQUATION
3
1049, 1, 1.0, 605, 1, -0.5, 606, 1, -0.5
*EQUATION
3
1049, 2, 1.0, 605, 2, -0.5, 606, 2, -0.5
*EQUATION
3
1049, 3, 1.0, 605, 3, -0.5, 606, 3, -0.5
*EQUATION
3
1050, 1, 1.0, 539, 1, -0.5, 556, 1, -0.5
*EQUATION
3
1050, 2, 1.0, 539, 2, -0.5, 556, 2, -0.5
*EQUATION
3
1050, 3, 1.0, 539, 3, -0.5, 556, 3, -0.5
*EQUATION
5
1051, 1, 1.0, 556, 1, -0.25, 539, 1, -0.25, 559, 1, -0.25, 557, 1, -0.25
*EQUATION
5
1051, 2, 1.0, 556, 2, -0.25, 539, 2, -0.25, 559, 2, -0.25, 557, 2, -0.25
*EQUATION
5
1051, 3, 1.0, 556, 3, -0.25, 539, 3, -0.25, 559, 3, -0.25, 557, 3, -0.25
*EQUATION
3
1052, 1, 1.0, 539, 1, -0.5, 559, 1, -0.5
*EQUATION
3
1052, 2, 1.0, 539, 2, -0.5, 559, 2, -0.5
*EQUATION
3
1052, 3, 1.0, 539, 3, -0.5, 559, 3, -0.5
*EQUATION
3
1056, 1, 1.0, 539, 1, -0.5, 587, 1, -0.5
*EQUATION
3
1056, 2, 1.0, 539, 2, -0.5, 587, 2, -0.5
*EQUATION
3
1056, 3, 1.0, 539, 3, -0.5, 587, 3, -0.5
*EQUATION
3
1061, 1, 1.0, 605, 1, -0.5, 607, 1, -0.5
*EQUATION
3
1061, 2, 1.0, 605, 2, -0.5, 607, 2, -0.5
*EQUATION
3
1061, 3, 1.0, 605, 3, -0.5, 607, 3, -0.5
*EQUATION
3
1062, 1, 1.0, 587, 1, -0.5, 607, 1, -0.5
*EQUATION
3
1062, 2, 1.0, 587, 2, -0.5, 607, 2, -0.5
*EQUATION
3
1062, 3, 1.0, 587, 3, -0.5, 607, 3, -0.5
*EQUATION
5
1067, 1, 1.0, 605, 1, -0.25, 607, 1, -0.25, 608, 1, -0.25, 606, 1, -0.25
*EQUATION
5
1067, 2, 1.0, 605, 2, -0.25, 607, 2, -0.25, 608, 2, -0.25, 606, 2, -0.25
*EQUATION
5
1067, 3, 1.0, 605, 3, -0.25, 607, 3, -0.25, 608, 3, -0.25, 606, 3, -0.25
*EQUATION
3
1068, 1, 1.0, 606, 1, -0.5, 608, 1, -0.5
*EQUATION
3
1068, 2, 1.0, 606, 2, -0.5, 608, 2, -0.5
*EQUATION
3
1068, 3, 1.0, 606, 3, -0.5, 608, 3, -0.5
*EQUATION
3
1069, 1, 1.0, 607, 1, -0.5, 608, 1, -0.5
*EQUATION
3
1069, 2, 1.0, 607, 2, -0.5, 608, 2, -0.5
*EQUATION
3
1069, 3, 1.0, 607, 3, -0.5, 608, 3, -0.5
*EQUATION
3
1070, 1, 1.0, 539, 1, -0.5, 540, 1, -0.5
*EQUATION
3
1070, 2, 1.0, 539, 2, -0.5, 540, 2, -0.5
*EQUATION
3
1070, 3, 1.0, 539, 3, -0.5, 540, 3, -0.5
*EQUATION
5
1071, 1, 1.0, 539, 1, -0.25, 540, 1, -0.25, 561, 1, -0.25, 559, 1, -0.25
*EQUATION
5
1071, 2, 1.0, 539, 2, -0.25, 540, 2, -0.25, 561, 2, -0.25, 559, 2, -0.25
*EQUATION
5
1071, 3, 1.0, 539, 3, -0.25, 540, 3, -0.25, 561, 3, -0.25, 559, 3, -0.25
*EQUATION
3
1072, 1, 1.0, 559, 1, -0.5, 561, 1, -0.5
*EQUATION
3
1072, 2, 1.0, 559, 2, -0.5, 561, 2, -0.5
*EQUATION
3
1072, 3, 1.0, 559, 3, -0.5, 561, 3, -0.5
*EQUATION
3
1073, 1, 1.0, 540, 1, -0.5, 561, 1, -0.5
*EQUATION
3
1073, 2, 1.0, 540, 2, -0.5, 561, 2, -0.5
*EQUATION
3
1073, 3, 1.0, 540, 3, -0.5, 561, 3, -0.5
*EQUATION
5
1074, 1, 1.0, 539, 1, -0.25, 587, 1, -0.25, 588, 1, -0.25, 540, 1, -0.25
*EQUATION
5
1074, 2, 1.0, 539, 2, -0.25, 587, 2, -0.25, 588, 2, -0.25, 540, 2, -0.25
*EQUATION
5
1074, 3, 1.0, 539, 3, -0.25, 587, 3, -0.25, 588, 3, -0.25, 540, 3, -0.25
*EQUATION
3
1077, 1, 1.0, 540, 1, -0.5, 588, 1, -0.5
*EQUATION
3
1077, 2, 1.0, 540, 2, -0.5, 588, 2, -0.5
*EQUATION
3
1077, 3, 1.0, 540, 3, -0.5, 588, 3, -0.5
*EQUATION
3
1080, 1, 1.0, 587, 1, -0.5, 588, 1, -0.5
*EQUATION
3
1080, 2, 1.0, 587, 2, -0.5, 588, 2, -0.5
*EQUATION
3
1080, 3, 1.0, 587, 3, -0.5, 588, 3, -0.5
*EQUATION
5
1081, 1, 1.0, 587, 1, -0.25, 588, 1, -0.25, 609, 1, -0.25, 607, 1, -0.25
*EQUATION
5
1081, 2, 1.0, 587, 2, -0.25, 588, 2, -0.25, 609, 2, -0.25, 607, 2, -0.25
*EQUATION
5
1081, 3, 1.0, 587, 3, -0.25, 588, 3, -0.25, 609, 3, -0.25, 607, 3, -0.25
*EQUATION
3
1082, 1, 1.0, 607, 1, -0.5, 609, 1, -0.5
*EQUATION
3
1082, 2, 1.0, 607, 2, -0.5, 609, 2, -0.5
*EQUATION
3
1082, 3, 1.0, 607, 3, -0.5, 609, 3, -0.5
*EQUATION
3
1083, 1, 1.0, 588, 1, -0.5, 609, 1, -0.5
*EQUATION
3
1083, 2, 1.0, 588, 2, -0.5, 609, 2, -0.5
*EQUATION
3
1083, 3, 1.0, 588, 3, -0.5, 609, 3, -0.5
*EQUATION
3
1084, 1, 1.0, 540, 1, -0.5, 546, 1, -0.5
*EQUATION
3
1084, 2, 1.0, 540, 2, -0.5, 546, 2, -0.5
*EQUATION
3
1084, 3, 1.0, 540, 3, -0.5, 546, 3, -0.5
*EQUATION
5
1085, 1, 1.0, 540, 1, -0.25, 546, 1, -0.25, 563, 1, -0.25, 561, 1, -0.25
*EQUATION
5
1085, 2, 1.0, 540, 2, -0.25, 546, 2, -0.25, 563, 2, -0.25, 561, 2, -0.25
*EQUATION
5
1085, 3, 1.0, 540, 3, -0.25, 546, 3, -0.25, 563, 3, -0.25, 561, 3, -0.25
*EQUATION
3
1086, 1, 1.0, 561, 1, -0.5, 563, 1, -0.5
*EQUATION
3
1086, 2, 1.0, 561, 2, -0.5, 563, 2, -0.5
*EQUATION
3
1086, 3, 1.0, 561, 3, -0.5, 563, 3, -0.5
*EQUATION
3
1087, 1, 1.0, 546, 1, -0.5, 563, 1, -0.5
*EQUATION
3
1087, 2, 1.0, 546, 2, -0.5, 563, 2, -0.5
*EQUATION
3
1087, 3, 1.0, 546, 3, -0.5, 563, 3, -0.5
*EQUATION
5
1088, 1, 1.0, 540, 1, -0.25, 588, 1, -0.25, 594, 1, -0.25, 546, 1, -0.25
*EQUATION
5
1088, 2, 1.0, 540, 2, -0.25, 588, 2, -0.25, 594, 2, -0.25, 546, 2, -0.25
*EQUATION
5
1088, 3, 1.0, 540, 3, -0.25, 588, 3, -0.25, 594, 3, -0.25, 546, 3, -0.25
*EQUATION
3
1091, 1, 1.0, 546, 1, -0.5, 594, 1, -0.5
*EQUATION
3
1091, 2, 1.0, 546, 2, -0.5, 594, 2, -0.5
*EQUATION
3
1091, 3, 1.0, 546, 3, -0.5, 594, 3, -0.5
*EQUATION
3
1094, 1, 1.0, 588, 1, -0.5, 594, 1, -0.5
*EQUATION
3
1094, 2, 1.0, 588, 2, -0.5, 594, 2, -0.5
*EQUATION
3
1094, 3, 1.0, 588, 3, -0.5, 594, 3, -0.5
*EQUATION
5
1095, 1, 1.0, 588, 1, -0.25, 594, 1, -0.25, 611, 1, -0.25, 609, 1, -0.25
*EQUATION
5
1095, 2, 1.0, 588, 2, -0.25, 594, 2, -0.25, 611, 2, -0.25, 609, 2, -0.25
*EQUATION
5
1095, 3, 1.0, 588, 3, -0.25, 594, 3, -0.25, 611, 3, -0.25, 609, 3, -0.25
*EQUATION
3
1096, 1, 1.0, 609, 1, -0.5, 611, 1, -0.5
*EQUATION
3
1096, 2, 1.0, 609, 2, -0.5, 611, 2, -0.5
*EQUATION
3
1096, 3, 1.0, 609, 3, -0.5, 611, 3, -0.5
*EQUATION
3
1097, 1, 1.0, 594, 1, -0.5, 611, 1, -0.5
*EQUATION
3
1097, 2, 1.0, 594, 2, -0.5, 611, 2, -0.5
*EQUATION
3
1097, 3, 1.0, 594, 3, -0.5, 611, 3, -0.5
*EQUATION
3
1098, 1, 1.0, 546, 1, -0.5, 565, 1, -0.5
*EQUATION
3
1098, 2, 1.0, 546, 2, -0.5, 565, 2, -0.5
*EQUATION
3
1098, 3, 1.0, 546, 3, -0.5, 565, 3, -0.5
*EQUATION
5
1099, 1, 1.0, 546, 1, -0.25, 565, 1, -0.25, 566, 1, -0.25, 563, 1, -0.25
*EQUATION
5
1099, 2, 1.0, 546, 2, -0.25, 565, 2, -0.25, 566, 2, -0.25, 563, 2, -0.25
*EQUATION
5
1099, 3, 1.0, 546, 3, -0.25, 565, 3, -0.25, 566, 3, -0.25, 563, 3, -0.25
*EQUATION
3
1100, 1, 1.0, 565, 1, -0.5, 566, 1, -0.5
*EQUATION
3
1100, 2, 1.0, 565, 2, -0.5, 566, 2, -0.5
*EQUATION
3
1100, 3, 1.0, 565, 3, -0.5, 566, 3, -0.5
*EQUATION
3
1107, 1, 1.0, 594, 1, -0.5, 613, 1, -0.5
*EQUATION
3
1107, 2, 1.0, 594, 2, -0.5, 613, 2, -0.5
*EQUATION
3
1107, 3, 1.0, 594, 3, -0.5, 613, 3, -0.5
*EQUATION
5
1108, 1, 1.0, 594, 1, -0.25, 613, 1, -0.25, 614, 1, -0.25, 611, 1, -0.25
*EQUATION
5
1108, 2, 1.0, 594, 2, -0.25, 613, 2, -0.25, 614, 2, -0.25, 611, 2, -0.25
*EQUATION
5
1108, 3, 1.0, 594, 3, -0.25, 613, 3, -0.25, 614, 3, -0.25, 611, 3, -0.25
*EQUATION
3
1109, 1, 1.0, 611, 1, -0.5, 614, 1, -0.5
*EQUATION
3
1109, 2, 1.0, 611, 2, -0.5, 614, 2, -0.5
*EQUATION
3
1109, 3, 1.0, 611, 3, -0.5, 614, 3, -0.5
*EQUATION
3
1110, 1, 1.0, 613, 1, -0.5, 614, 1, -0.5
*EQUATION
3
1110, 2, 1.0, 613, 2, -0.5, 614, 2, -0.5
*EQUATION
3
1110, 3, 1.0, 613, 3, -0.5, 614, 3, -0.5
*EQUATION
3
1117, 1, 1.0, 611, 1, -0.5, 612, 1, -0.5
*EQUATION
3
1117, 2, 1.0, 611, 2, -0.5, 612, 2, -0.5
*EQUATION
3
1117, 3, 1.0, 611, 3, -0.5, 612, 3, -0.5
*EQUATION
5
1118, 1, 1.0, 611, 1, -0.25, 614, 1, -0.25, 615, 1, -0.25, 612, 1, -0.25
*EQUATION
5
1118, 2, 1.0, 611, 2, -0.25, 614, 2, -0.25, 615, 2, -0.25, 612, 2, -0.25
*EQUATION
5
1118, 3, 1.0, 611, 3, -0.25, 614, 3, -0.25, 615, 3, -0.25, 612, 3, -0.25
*EQUATION
3
1119, 1, 1.0, 612, 1, -0.5, 615, 1, -0.5
*EQUATION
3
1119, 2, 1.0, 612, 2, -0.5, 615, 2, -0.5
*EQUATION
3
1119, 3, 1.0, 612, 3, -0.5, 615, 3, -0.5
*EQUATION
3
1120, 1, 1.0, 614, 1, -0.5, 615, 1, -0.5
*EQUATION
3
1120, 2, 1.0, 614, 2, -0.5, 615, 2, -0.5
*EQUATION
3
1120, 3, 1.0, 614, 3, -0.5, 615, 3, -0.5
*EQUATION
3
1121, 1, 1.0, 565, 1, -0.5, 568, 1, -0.5
*EQUATION
3
1121, 2, 1.0, 565, 2, -0.5, 568, 2, -0.5
*EQUATION
3
1121, 3, 1.0, 565, 3, -0.5, 568, 3, -0.5
*EQUATION
5
1122, 1, 1.0, 565, 1, -0.25, 568, 1, -0.25, 569, 1, -0.25, 566, 1, -0.25
*EQUATION
5
1122, 2, 1.0, 565, 2, -0.25, 568, 2, -0.25, 569, 2, -0.25, 566, 2, -0.25
*EQUATION
5
1122, 3, 1.0, 565, 3, -0.25, 568, 3, -0.25, 569, 3, -0.25, 566, 3, -0.25
*EQUATION
3
1123, 1, 1.0, 566, 1, -0.5, 569, 1, -0.5
*EQUATION
3
1123, 2, 1.0, 566, 2, -0.5, 569, 2, -0.5
*EQUATION
3
1123, 3, 1.0, 566, 3, -0.5, 569, 3, -0.5
*EQUATION
3
1124, 1, 1.0, 568, 1, -0.5, 569, 1, -0.5
*EQUATION
3
1124, 2, 1.0, 568, 2, -0.5, 569, 2, -0.5
*EQUATION
3
1124, 3, 1.0, 568, 3, -0.5, 569, 3, -0.5
*EQUATION
3
1131, 1, 1.0, 613, 1, -0.5, 616, 1, -0.5
*EQUATION
3
1131, 2, 1.0, 613, 2, -0.5, 616, 2, -0.5
*EQUATION
3
1131, 3, 1.0, 613, 3, -0.5, 616, 3, -0.5
*EQUATION
5
1132, 1, 1.0, 613, 1, -0.25, 616, 1, -0.25, 617, 1, -0.25, 614, 1, -0.25
*EQUATION
5
1132, 2, 1.0, 613, 2, -0.25, 616, 2, -0.25, 617, 2, -0.25, 614, 2, -0.25
*EQUATION
5
1132, 3, 1.0, 613, 3, -0.25, 616, 3, -0.25, 617, 3, -0.25, 614, 3, -0.25
*EQUATION
3
1133, 1, 1.0, 614, 1, -0.5, 617, 1, -0.5
*EQUATION
3
1133, 2, 1.0, 614, 2, -0.5, 617, 2, -0.5
*EQUATION
3
1133, 3, 1.0, 614, 3, -0.5, 617, 3, -0.5
*EQUATION
3
1134, 1, 1.0, 616, 1, -0.5, 617, 1, -0.5
*EQUATION
3
1134, 2, 1.0, 616, 2, -0.5, 617, 2, -0.5
*EQUATION
3
1134, 3, 1.0, 616, 3, -0.5, 617, 3, -0.5
*EQUATION
5
1135, 1, 1.0, 566, 1, -0.25, 569, 1, -0.25, 570, 1, -0.25, 567, 1, -0.25
*EQUATION
5
1135, 2, 1.0, 566, 2, -0.25, 569, 2, -0.25, 570, 2, -0.25, 567, 2, -0.25
*EQUATION
5
1135, 3, 1.0, 566, 3, -0.25, 569, 3, -0.25, 570, 3, -0.25, 567, 3, -0.25
*EQUATION
3
1136, 1, 1.0, 567, 1, -0.5, 570, 1, -0.5
*EQUATION
3
1136, 2, 1.0, 567, 2, -0.5, 570, 2, -0.5
*EQUATION
3
1136, 3, 1.0, 567, 3, -0.5, 570, 3, -0.5
*EQUATION
3
1137, 1, 1.0, 569, 1, -0.5, 570, 1, -0.5
*EQUATION
3
1137, 2, 1.0, 569, 2, -0.5, 570, 2, -0.5
*EQUATION
3
1137, 3, 1.0, 569, 3, -0.5, 570, 3, -0.5
*EQUATION
5
1142, 1, 1.0, 614, 1, -0.25, 617, 1, -0.25, 618, 1, -0.25, 615, 1, -0.25
*EQUATION
5
1142, 2, 1.0, 614, 2, -0.25, 617, 2, -0.25, 618, 2, -0.25, 615, 2, -0.25
*EQUATION
5
1142, 3, 1.0, 614, 3, -0.25, 617, 3, -0.25, 618, 3, -0.25, 615, 3, -0.25
*EQUATION
3
1143, 1, 1.0, 615, 1, -0.5, 618, 1, -0.5
*EQUATION
3
1143, 2, 1.0, 615, 2, -0.5, 618, 2, -0.5
*EQUATION
3
1143, 3, 1.0, 615, 3, -0.5, 618, 3, -0.5
*EQUATION
3
1144, 1, 1.0, 617, 1, -0.5, 618, 1, -0.5
*EQUATION
3
1144, 2, 1.0, 617, 2, -0.5, 618, 2, -0.5
*EQUATION
3
1144, 3, 1.0, 617, 3, -0.5, 618, 3, -0.5
*EQUATION
3
1145, 1, 1.0, 568, 1, -0.5, 571, 1, -0.5
*EQUATION
3
1145, 2, 1.0, 568, 2, -0.5, 571, 2, -0.5
*EQUATION
3
1145, 3, 1.0, 568, 3, -0.5, 571, 3, -0.5
*EQUATION
5
1146, 1, 1.0, 568, 1, -0.25, 571, 1, -0.25, 572, 1, -0.25, 569, 1, -0.25
*EQUATION
5
1146, 2, 1.0, 568, 2, -0.25, 571, 2, -0.25, 572, 2, -0.25, 569, 2, -0.25
*EQUATION
5
1146, 3, 1.0, 568, 3, -0.25, 571, 3, -0.25, 572, 3, -0.25, 569, 3, -0.25
*EQUATION
3
1147, 1, 1.0, 569, 1, -0.5, 572, 1, -0.5
*EQUATION
3
1147, 2, 1.0, 569, 2, -0.5, 572, 2, -0.5
*EQUATION
3
1147, 3, 1.0, 569, 3, -0.5, 572, 3, -0.5
*EQUATION
3
1148, 1, 1.0, 571, 1, -0.5, 572, 1, -0.5
*EQUATION
3
1148, 2, 1.0, 571, 2, -0.5, 572, 2, -0.5
*EQUATION
3
1148, 3, 1.0, 571, 3, -0.5, 572, 3, -0.5
*EQUATION
3
1155, 1, 1.0, 616, 1, -0.5, 619, 1, -0.5
*EQUATION
3
1155, 2, 1.0, 616, 2, -0.5, 619, 2, -0.5
*EQUATION
3
1155, 3, 1.0, 616, 3, -0.5, 619, 3, -0.5
*EQUATION
5
1156, 1, 1.0, 616, 1, -0.25, 619, 1, -0.25, 620, 1, -0.25, 617, 1, -0.25
*EQUATION
5
1156, 2, 1.0, 616, 2, -0.25, 619, 2, -0.25, 620, 2, -0.25, 617, 2, -0.25
*EQUATION
5
1156, 3, 1.0, 616, 3, -0.25, 619, 3, -0.25, 620, 3, -0.25, 617, 3, -0.25
*EQUATION
3
1157, 1, 1.0, 617, 1, -0.5, 620, 1, -0.5
*EQUATION
3
1157, 2, 1.0, 617, 2, -0.5, 620, 2, -0.5
*EQUATION
3
1157, 3, 1.0, 617, 3, -0.5, 620, 3, -0.5
*EQUATION
3
1158, 1, 1.0, 619, 1, -0.5, 620, 1, -0.5
*EQUATION
3
1158, 2, 1.0, 619, 2, -0.5, 620, 2, -0.5
*EQUATION
3
1158, 3, 1.0, 619, 3, -0.5, 620, 3, -0.5
*EQUATION
5
1159, 1, 1.0, 569, 1, -0.25, 572, 1, -0.25, 573, 1, -0.25, 570, 1, -0.25
*EQUATION
5
1159, 2, 1.0, 569, 2, -0.25, 572, 2, -0.25, 573, 2, -0.25, 570, 2, -0.25
*EQUATION
5
1159, 3, 1.0, 569, 3, -0.25, 572, 3, -0.25, 573, 3, -0.25, 570, 3, -0.25
*EQUATION
3
1160, 1, 1.0, 570, 1, -0.5, 573, 1, -0.5
*EQUATION
3
1160, 2, 1.0, 570, 2, -0.5, 573, 2, -0.5
*EQUATION
3
1160, 3, 1.0, 570, 3, -0.5, 573, 3, -0.5
*EQUATION
5
1165, 1, 1.0, 617, 1, -0.25, 620, 1, -0.25, 621, 1, -0.25, 618, 1, -0.25
*EQUATION
5
1165, 2, 1.0, 617, 2, -0.25, 620, 2, -0.25, 621, 2, -0.25, 618, 2, -0.25
*EQUATION
5
1165, 3, 1.0, 617, 3, -0.25, 620, 3, -0.25, 621, 3, -0.25, 618, 3, -0.25
*EQUATION
3
1166, 1, 1.0, 618, 1, -0.5, 621, 1, -0.5
*EQUATION
3
1166, 2, 1.0, 618, 2, -0.5, 621, 2, -0.5
*EQUATION
3
1166, 3, 1.0, 618, 3, -0.5, 621, 3, -0.5
*EQUATION
3
1167, 1, 1.0, 620, 1, -0.5, 621, 1, -0.5
*EQUATION
3
1167, 2, 1.0, 620, 2, -0.5, 621, 2, -0.5
*EQUATION
3
1167, 3, 1.0, 620, 3, -0.5, 621, 3, -0.5
*EQUATION
3
1168, 1, 1.0, 571, 1, -0.5, 574, 1, -0.5
*EQUATION
3
1168, 2, 1.0, 571, 2, -0.5, 574, 2, -0.5
*EQUATION
3
1168, 3, 1.0, 571, 3, -0.5, 574, 3, -0.5
*EQUATION
5
1169, 1, 1.0, 571, 1, -0.25, 574, 1, -0.25, 575, 1, -0.25, 572, 1, -0.25
*EQUATION
5
1169, 2, 1.0, 571, 2, -0.25, 574, 2, -0.25, 575, 2, -0.25, 572, 2, -0.25
*EQUATION
5
1169, 3, 1.0, 571, 3, -0.25, 574, 3, -0.25, 575, 3, -0.25, 572, 3, -0.25
*EQUATION
3
1170, 1, 1.0, 574, 1, -0.5, 575, 1, -0.5
*EQUATION
3
1170, 2, 1.0, 574, 2, -0.5, 575, 2, -0.5
*EQUATION
3
1170, 3, 1.0, 574, 3, -0.5, 575, 3, -0.5
*EQUATION
3
1177, 1, 1.0, 619, 1, -0.5, 622, 1, -0.5
*EQUATION
3
1177, 2, 1.0, 619, 2, -0.5, 622, 2, -0.5
*EQUATION
3
1177, 3, 1.0, 619, 3, -0.5, 622, 3, -0.5
*EQUATION
5
1178, 1, 1.0, 619, 1, -0.25, 622, 1, -0.25, 623, 1, -0.25, 620, 1, -0.25
*EQUATION
5
1178, 2, 1.0, 619, 2, -0.25, 622, 2, -0.25, 623, 2, -0.25, 620, 2, -0.25
*EQUATION
5
1178, 3, 1.0, 619, 3, -0.25, 622, 3, -0.25, 623, 3, -0.25, 620, 3, -0.25
*EQUATION
3
1179, 1, 1.0, 620, 1, -0.5, 623, 1, -0.5
*EQUATION
3
1179, 2, 1.0, 620, 2, -0.5, 623, 2, -0.5
*EQUATION
3
1179, 3, 1.0, 620, 3, -0.5, 623, 3, -0.5
*EQUATION
3
1180, 1, 1.0, 622, 1, -0.5, 623, 1, -0.5
*EQUATION
3
1180, 2, 1.0, 622, 2, -0.5, 623, 2, -0.5
*EQUATION
3
1180, 3, 1.0, 622, 3, -0.5, 623, 3, -0.5
*EQUATION
5
1185, 1, 1.0, 620, 1, -0.25, 623, 1, -0.25, 624, 1, -0.25, 621, 1, -0.25
*EQUATION
5
1185, 2, 1.0, 620, 2, -0.25, 623, 2, -0.25, 624, 2, -0.25, 621, 2, -0.25
*EQUATION
5
1185, 3, 1.0, 620, 3, -0.25, 623, 3, -0.25, 624, 3, -0.25, 621, 3, -0.25
*EQUATION
3
1186, 1, 1.0, 621, 1, -0.5, 624, 1, -0.5
*EQUATION
3
1186, 2, 1.0, 621, 2, -0.5, 624, 2, -0.5
*EQUATION
3
1186, 3, 1.0, 621, 3, -0.5, 624, 3, -0.5
*EQUATION
3
1187, 1, 1.0, 623, 1, -0.5, 624, 1, -0.5
*EQUATION
3
1187, 2, 1.0, 623, 2, -0.5, 624, 2, -0.5
*EQUATION
3
1187, 3, 1.0, 623, 3, -0.5, 624, 3, -0.5
*EQUATION
3
1188, 1, 1.0, 259, 1, -0.5, 261, 1, -0.5
*EQUATION
3
1188, 2, 1.0, 259, 2, -0.5, 261, 2, -0.5
*EQUATION
3
1188, 3, 1.0, 259, 3, -0.5, 261, 3, -0.5
*EQUATION
3
1189, 1, 1.0, 259, 1, -0.5, 260, 1, -0.5
*EQUATION
3
1189, 2, 1.0, 259, 2, -0.5, 260, 2, -0.5
*EQUATION
3
1189, 3, 1.0, 259, 3, -0.5, 260, 3, -0.5
*EQUATION
5
1190, 1, 1.0, 259, 1, -0.25, 260, 1, -0.25, 262, 1, -0.25, 261, 1, -0.25
*EQUATION
5
1190, 2, 1.0, 259, 2, -0.25, 260, 2, -0.25, 262, 2, -0.25, 261, 2, -0.25
*EQUATION
5
1190, 3, 1.0, 259, 3, -0.25, 260, 3, -0.25, 262, 3, -0.25, 261, 3, -0.25
*EQUATION
3
1191, 1, 1.0, 261, 1, -0.5, 262, 1, -0.5
*EQUATION
3
1191, 2, 1.0, 261, 2, -0.5, 262, 2, -0.5
*EQUATION
3
1191, 3, 1.0, 261, 3, -0.5, 262, 3, -0.5
*EQUATION
3
1192, 1, 1.0, 260, 1, -0.5, 262, 1, -0.5
*EQUATION
3
1192, 2, 1.0, 260, 2, -0.5, 262, 2, -0.5
*EQUATION
3
1192, 3, 1.0, 260, 3, -0.5, 262, 3, -0.5
*EQUATION
3
1202, 1, 1.0, 307, 1, -0.5, 309, 1, -0.5
*EQUATION
3
1202, 2, 1.0, 307, 2, -0.5, 309, 2, -0.5
*EQUATION
3
1202, 3, 1.0, 307, 3, -0.5, 309, 3, -0.5
*EQUATION
3
1203, 1, 1.0, 307, 1, -0.5, 308, 1, -0.5
*EQUATION
3
1203, 2, 1.0, 307, 2, -0.5, 308, 2, -0.5
*EQUATION
3
1203, 3, 1.0, 307, 3, -0.5, 308, 3, -0.5
*EQUATION
5
1204, 1, 1.0, 307, 1, -0.25, 308, 1, -0.25, 310, 1, -0.25, 309, 1, -0.25
*EQUATION
5
1204, 2, 1.0, 307, 2, -0.25, 308, 2, -0.25, 310, 2, -0.25, 309, 2, -0.25
*EQUATION
5
1204, 3, 1.0, 307, 3, -0.25, 308, 3, -0.25, 310, 3, -0.25, 309, 3, -0.25
*EQUATION
3
1205, 1, 1.0, 309, 1, -0.5, 310, 1, -0.5
*EQUATION
3
1205, 2, 1.0, 309, 2, -0.5, 310, 2, -0.5
*EQUATION
3
1205, 3, 1.0, 309, 3, -0.5, 310, 3, -0.5
*EQUATION
3
1206, 1, 1.0, 308, 1, -0.5, 310, 1, -0.5
*EQUATION
3
1206, 2, 1.0, 308, 2, -0.5, 310, 2, -0.5
*EQUATION
3
1206, 3, 1.0, 308, 3, -0.5, 310, 3, -0.5
*EQUATION
3
1207, 1, 1.0, 261, 1, -0.5, 263, 1, -0.5
*EQUATION
3
1207, 2, 1.0, 261, 2, -0.5, 263, 2, -0.5
*EQUATION
3
1207, 3, 1.0, 261, 3, -0.5, 263, 3, -0.5
*EQUATION
5
1208, 1, 1.0, 261, 1, -0.25, 262, 1, -0.25, 264, 1, -0.25, 263, 1, -0.25
*EQUATION
5
1208, 2, 1.0, 261, 2, -0.25, 262, 2, -0.25, 264, 2, -0.25, 263, 2, -0.25
*EQUATION
5
1208, 3, 1.0, 261, 3, -0.25, 262, 3, -0.25, 264, 3, -0.25, 263, 3, -0.25
*EQUATION
3
1209, 1, 1.0, 263, 1, -0.5, 264, 1, -0.5
*EQUATION
3
1209, 2, 1.0, 263, 2, -0.5, 264, 2, -0.5
*EQUATION
3
1209, 3, 1.0, 263, 3, -0.5, 264, 3, -0.5
*EQUATION
3
1210, 1, 1.0, 262, 1, -0.5, 264, 1, -0.5
*EQUATION
3
1210, 2, 1.0, 262, 2, -0.5, 264, 2, -0.5
*EQUATION
3
1210, 3, 1.0, 262, 3, -0.5, 264, 3, -0.5
*EQUATION
3
1217, 1, 1.0, 309, 1, -0.5, 311, 1, -0.5
*EQUATION
3
1217, 2, 1.0, 309, 2, -0.5, 311, 2, -0.5
*EQUATION
3
1217, 3, 1.0, 309, 3, -0.5, 311, 3, -0.5
*EQUATION
5
1218, 1, 1.0, 309, 1, -0.25, 310, 1, -0.25, 312, 1, -0.25, 311, 1, -0.25
*EQUATION
5
1218, 2, 1.0, 309, 2, -0.25, 310, 2, -0.25, 312, 2, -0.25, 311, 2, -0.25
*EQUATION
5
1218, 3, 1.0, 309, 3, -0.25, 310, 3, -0.25, 312, 3, -0.25, 311, 3, -0.25
*EQUATION
3
1219, 1, 1.0, 311, 1, -0.5, 312, 1, -0.5
*EQUATION
3
1219, 2, 1.0, 311, 2, -0.5, 312, 2, -0.5
*EQUATION
3
1219, 3, 1.0, 311, 3, -0.5, 312, 3, -0.5
*EQUATION
3
1220, 1, 1.0, 310, 1, -0.5, 312, 1, -0.5
*EQUATION
3
1220, 2, 1.0, 310, 2, -0.5, 312, 2, -0.5
*EQUATION
3
1220, 3, 1.0, 310, 3, -0.5, 312, 3, -0.5
*EQUATION
3
1221, 1, 1.0, 260, 1, -0.5, 265, 1, -0.5
*EQUATION
3
1221, 2, 1.0, 260, 2, -0.5, 265, 2, -0.5
*EQUATION
3
1221, 3, 1.0, 260, 3, -0.5, 265, 3, -0.5
*EQUATION
5
1222, 1, 1.0, 260, 1, -0.25, 265, 1, -0.25, 266, 1, -0.25, 262, 1, -0.25
*EQUATION
5
1222, 2, 1.0, 260, 2, -0.25, 265, 2, -0.25, 266, 2, -0.25, 262, 2, -0.25
*EQUATION
5
1222, 3, 1.0, 260, 3, -0.25, 265, 3, -0.25, 266, 3, -0.25, 262, 3, -0.25
*EQUATION
3
1223, 1, 1.0, 262, 1, -0.5, 266, 1, -0.5
*EQUATION
3
1223, 2, 1.0, 262, 2, -0.5, 266, 2, -0.5
*EQUATION
3
1223, 3, 1.0, 262, 3, -0.5, 266, 3, -0.5
*EQUATION
3
1224, 1, 1.0, 265, 1, -0.5, 266, 1, -0.5
*EQUATION
3
1224, 2, 1.0, 265, 2, -0.5, 266, 2, -0.5
*EQUATION
3
1224, 3, 1.0, 265, 3, -0.5, 266, 3, -0.5
*EQUATION
3
1231, 1, 1.0, 308, 1, -0.5, 313, 1, -0.5
*EQUATION
3
1231, 2, 1.0, 308, 2, -0.5, 313, 2, -0.5
*EQUATION
3
1231, 3, 1.0, 308, 3, -0.5, 313, 3, -0.5
*EQUATION
5
1232, 1, 1.0, 308, 1, -0.25, 313, 1, -0.25, 314, 1, -0.25, 310, 1, -0.25
*EQUATION
5
1232, 2, 1.0, 308, 2, -0.25, 313, 2, -0.25, 314, 2, -0.25, 310, 2, -0.25
*EQUATION
5
1232, 3, 1.0, 308, 3, -0.25, 313, 3, -0.25, 314, 3, -0.25, 310, 3, -0.25
*EQUATION
3
1233, 1, 1.0, 310, 1, -0.5, 314, 1, -0.5
*EQUATION
3
1233, 2, 1.0, 310, 2, -0.5, 314, 2, -0.5
*EQUATION
3
1233, 3, 1.0, 310, 3, -0.5, 314, 3, -0.5
*EQUATION
3
1234, 1, 1.0, 313, 1, -0.5, 314, 1, -0.5
*EQUATION
3
1234, 2, 1.0, 313, 2, -0.5, 314, 2, -0.5
*EQUATION
3
1234, 3, 1.0, 313, 3, -0.5, 314, 3, -0.5
*EQUATION
5
1235, 1, 1.0, 262, 1, -0.25, 266, 1, -0.25, 267, 1, -0.25, 264, 1, -0.25
*EQUATION
5
1235, 2, 1.0, 262, 2, -0.25, 266, 2, -0.25, 267, 2, -0.25, 264, 2, -0.25
*EQUATION
5
1235, 3, 1.0, 262, 3, -0.25, 266, 3, -0.25, 267, 3, -0.25, 264, 3, -0.25
*EQUATION
3
1236, 1, 1.0, 264, 1, -0.5, 267, 1, -0.5
*EQUATION
3
1236, 2, 1.0, 264, 2, -0.5, 267, 2, -0.5
*EQUATION
3
1236, 3, 1.0, 264, 3, -0.5, 267, 3, -0.5
*EQUATION
3
1237, 1, 1.0, 266, 1, -0.5, 267, 1, -0.5
*EQUATION
3
1237, 2, 1.0, 266, 2, -0.5, 267, 2, -0.5
*EQUATION
3
1237, 3, 1.0, 266, 3, -0.5, 267, 3, -0.5
*EQUATION
5
1242, 1, 1.0, 310, 1, -0.25, 314, 1, -0.25, 315, 1, -0.25, 312, 1, -0.25
*EQUATION
5
1242, 2, 1.0, 310, 2, -0.25, 314, 2, -0.25, 315, 2, -0.25, 312, 2, -0.25
*EQUATION
5
1242, 3, 1.0, 310, 3, -0.25, 314, 3, -0.25, 315, 3, -0.25, 312, 3, -0.25
*EQUATION
3
1243, 1, 1.0, 312, 1, -0.5, 315, 1, -0.5
*EQUATION
3
1243, 2, 1.0, 312, 2, -0.5, 315, 2, -0.5
*EQUATION
3
1243, 3, 1.0, 312, 3, -0.5, 315, 3, -0.5
*EQUATION
3
1244, 1, 1.0, 314, 1, -0.5, 315, 1, -0.5
*EQUATION
3
1244, 2, 1.0, 314, 2, -0.5, 315, 2, -0.5
*EQUATION
3
1244, 3, 1.0, 314, 3, -0.5, 315, 3, -0.5
*EQUATION
3
1245, 1, 1.0, 265, 1, -0.5, 268, 1, -0.5
*EQUATION
3
1245, 2, 1.0, 265, 2, -0.5, 268, 2, -0.5
*EQUATION
3
1245, 3, 1.0, 265, 3, -0.5, 268, 3, -0.5
*EQUATION
5
1246, 1, 1.0, 265, 1, -0.25, 268, 1, -0.25, 269, 1, -0.25, 266, 1, -0.25
*EQUATION
5
1246, 2, 1.0, 265, 2, -0.25, 268, 2, -0.25, 269, 2, -0.25, 266, 2, -0.25
*EQUATION
5
1246, 3, 1.0, 265, 3, -0.25, 268, 3, -0.25, 269, 3, -0.25, 266, 3, -0.25
*EQUATION
3
1247, 1, 1.0, 266, 1, -0.5, 269, 1, -0.5
*EQUATION
3
1247, 2, 1.0, 266, 2, -0.5, 269, 2, -0.5
*EQUATION
3
1247, 3, 1.0, 266, 3, -0.5, 269, 3, -0.5
*EQUATION
3
1248, 1, 1.0, 268, 1, -0.5, 269, 1, -0.5
*EQUATION
3
1248, 2, 1.0, 268, 2, -0.5, 269, 2, -0.5
*EQUATION
3
1248, 3, 1.0, 268, 3, -0.5, 269, 3, -0.5
*EQUATION
3
1255, 1, 1.0, 313, 1, -0.5, 316, 1, -0.5
*EQUATION
3
1255, 2, 1.0, 313, 2, -0.5, 316, 2, -0.5
*EQUATION
3
1255, 3, 1.0, 313, 3, -0.5, 316, 3, -0.5
*EQUATION
5
1256, 1, 1.0, 313, 1, -0.25, 316, 1, -0.25, 317, 1, -0.25, 314, 1, -0.25
*EQUATION
5
1256, 2, 1.0, 313, 2, -0.25, 316, 2, -0.25, 317, 2, -0.25, 314, 2, -0.25
*EQUATION
5
1256, 3, 1.0, 313, 3, -0.25, 316, 3, -0.25, 317, 3, -0.25, 314, 3, -0.25
*EQUATION
3
1257, 1, 1.0, 314, 1, -0.5, 317, 1, -0.5
*EQUATION
3
1257, 2, 1.0, 314, 2, -0.5, 317, 2, -0.5
*EQUATION
3
1257, 3, 1.0, 314, 3, -0.5, 317, 3, -0.5
*EQUATION
3
1258, 1, 1.0, 316, 1, -0.5, 317, 1, -0.5
*EQUATION
3
1258, 2, 1.0, 316, 2, -0.5, 317, 2, -0.5
*EQUATION
3
1258, 3, 1.0, 316, 3, -0.5, 317, 3, -0.5
*EQUATION
5
1259, 1, 1.0, 266, 1, -0.25, 269, 1, -0.25, 270, 1, -0.25, 267, 1, -0.25
*EQUATION
5
1259, 2, 1.0, 266, 2, -0.25, 269, 2, -0.25, 270, 2, -0.25, 267, 2, -0.25
*EQUATION
5
1259, 3, 1.0, 266, 3, -0.25, 269, 3, -0.25, 270, 3, -0.25, 267, 3, -0.25
*EQUATION
3
1260, 1, 1.0, 267, 1, -0.5, 270, 1, -0.5
*EQUATION
3
1260, 2, 1.0, 267, 2, -0.5, 270, 2, -0.5
*EQUATION
3
1260, 3, 1.0, 267, 3, -0.5, 270, 3, -0.5
*EQUATION
3
1261, 1, 1.0, 269, 1, -0.5, 270, 1, -0.5
*EQUATION
3
1261, 2, 1.0, 269, 2, -0.5, 270, 2, -0.5
*EQUATION
3
1261, 3, 1.0, 269, 3, -0.5, 270, 3, -0.5
*EQUATION
5
1266, 1, 1.0, 314, 1, -0.25, 317, 1, -0.25, 318, 1, -0.25, 315, 1, -0.25
*EQUATION
5
1266, 2, 1.0, 314, 2, -0.25, 317, 2, -0.25, 318, 2, -0.25, 315, 2, -0.25
*EQUATION
5
1266, 3, 1.0, 314, 3, -0.25, 317, 3, -0.25, 318, 3, -0.25, 315, 3, -0.25
*EQUATION
3
1267, 1, 1.0, 315, 1, -0.5, 318, 1, -0.5
*EQUATION
3
1267, 2, 1.0, 315, 2, -0.5, 318, 2, -0.5
*EQUATION
3
1267, 3, 1.0, 315, 3, -0.5, 318, 3, -0.5
*EQUATION
3
1268, 1, 1.0, 317, 1, -0.5, 318, 1, -0.5
*EQUATION
3
1268, 2, 1.0, 317, 2, -0.5, 318, 2, -0.5
*EQUATION
3
1268, 3, 1.0, 317, 3, -0.5, 318, 3, -0.5
*EQUATION
3
1269, 1, 1.0, 251, 1, -0.5, 268, 1, -0.5
*EQUATION
3
1269, 2, 1.0, 251, 2, -0.5, 268, 2, -0.5
*EQUATION
3
1269, 3, 1.0, 251, 3, -0.5, 268, 3, -0.5
*EQUATION
5
1270, 1, 1.0, 268, 1, -0.25, 251, 1, -0.25, 271, 1, -0.25, 269, 1, -0.25
*EQUATION
5
1270, 2, 1.0, 268, 2, -0.25, 251, 2, -0.25, 271, 2, -0.25, 269, 2, -0.25
*EQUATION
5
1270, 3, 1.0, 268, 3, -0.25, 251, 3, -0.25, 271, 3, -0.25, 269, 3, -0.25
*EQUATION
3
1271, 1, 1.0, 269, 1, -0.5, 271, 1, -0.5
*EQUATION
3
1271, 2, 1.0, 269, 2, -0.5, 271, 2, -0.5
*EQUATION
3
1271, 3, 1.0, 269, 3, -0.5, 271, 3, -0.5
*EQUATION
3
1272, 1, 1.0, 251, 1, -0.5, 271, 1, -0.5
*EQUATION
3
1272, 2, 1.0, 251, 2, -0.5, 271, 2, -0.5
*EQUATION
3
1272, 3, 1.0, 251, 3, -0.5, 271, 3, -0.5
*EQUATION
3
1276, 1, 1.0, 251, 1, -0.5, 299, 1, -0.5
*EQUATION
3
1276, 2, 1.0, 251, 2, -0.5, 299, 2, -0.5
*EQUATION
3
1276, 3, 1.0, 251, 3, -0.5, 299, 3, -0.5
*EQUATION
3
1278, 1, 1.0, 271, 1, -0.5, 319, 1, -0.5
*EQUATION
3
1278, 2, 1.0, 271, 2, -0.5, 319, 2, -0.5
*EQUATION
3
1278, 3, 1.0, 271, 3, -0.5, 319, 3, -0.5
*EQUATION
3
1279, 1, 1.0, 299, 1, -0.5, 316, 1, -0.5
*EQUATION
3
1279, 2, 1.0, 299, 2, -0.5, 316, 2, -0.5
*EQUATION
3
1279, 3, 1.0, 299, 3, -0.5, 316, 3, -0.5
*EQUATION
5
1280, 1, 1.0, 316, 1, -0.25, 299, 1, -0.25, 319, 1, -0.25, 317, 1, -0.25
*EQUATION
5
1280, 2, 1.0, 316, 2, -0.25, 299, 2, -0.25, 319, 2, -0.25, 317, 2, -0.25
*EQUATION
5
1280, 3, 1.0, 316, 3, -0.25, 299, 3, -0.25, 319, 3, -0.25, 317, 3, -0.25
*EQUATION
3
1281, 1, 1.0, 317, 1, -0.5, 319, 1, -0.5
*EQUATION
3
1281, 2, 1.0, 317, 2, -0.5, 319, 2, -0.5
*EQUATION
3
1281, 3, 1.0, 317, 3, -0.5, 319, 3, -0.5
*EQUATION
3
1282, 1, 1.0, 299, 1, -0.5, 319, 1, -0.5
*EQUATION
3
1282, 2, 1.0, 299, 2, -0.5, 319, 2, -0.5
*EQUATION
3
1282, 3, 1.0, 299, 3, -0.5, 319, 3, -0.5
*EQUATION
5
1283, 1, 1.0, 269, 1, -0.25, 271, 1, -0.25, 272, 1, -0.25, 270, 1, -0.25
*EQUATION
5
1283, 2, 1.0, 269, 2, -0.25, 271, 2, -0.25, 272, 2, -0.25, 270, 2, -0.25
*EQUATION
5
1283, 3, 1.0, 269, 3, -0.25, 271, 3, -0.25, 272, 3, -0.25, 270, 3, -0.25
*EQUATION
3
1284, 1, 1.0, 270, 1, -0.5, 272, 1, -0.5
*EQUATION
3
1284, 2, 1.0, 270, 2, -0.5, 272, 2, -0.5
*EQUATION
3
1284, 3, 1.0, 270, 3, -0.5, 272, 3, -0.5
*EQUATION
3
1285, 1, 1.0, 271, 1, -0.5, 272, 1, -0.5
*EQUATION
3
1285, 2, 1.0, 271, 2, -0.5, 272, 2, -0.5
*EQUATION
3
1285, 3, 1.0, 271, 3, -0.5, 272, 3, -0.5
*EQUATION
5
1288, 1, 1.0, 271, 1, -0.25, 319, 1, -0.25, 320, 1, -0.25, 272, 1, -0.25
*EQUATION
5
1288, 2, 1.0, 271, 2, -0.25, 319, 2, -0.25, 320, 2, -0.25, 272, 2, -0.25
*EQUATION
5
1288, 3, 1.0, 271, 3, -0.25, 319, 3, -0.25, 320, 3, -0.25, 272, 3, -0.25
*EQUATION
3
1289, 1, 1.0, 272, 1, -0.5, 320, 1, -0.5
*EQUATION
3
1289, 2, 1.0, 272, 2, -0.5, 320, 2, -0.5
*EQUATION
3
1289, 3, 1.0, 272, 3, -0.5, 320, 3, -0.5
*EQUATION
5
1290, 1, 1.0, 317, 1, -0.25, 319, 1, -0.25, 320, 1, -0.25, 318, 1, -0.25
*EQUATION
5
1290, 2, 1.0, 317, 2, -0.25, 319, 2, -0.25, 320, 2, -0.25, 318, 2, -0.25
*EQUATION
5
1290, 3, 1.0, 317, 3, -0.25, 319, 3, -0.25, 320, 3, -0.25, 318, 3, -0.25
*EQUATION
3
1291, 1, 1.0, 318, 1, -0.5, 320, 1, -0.5
*EQUATION
3
1291, 2, 1.0, 318, 2, -0.5, 320, 2, -0.5
*EQUATION
3
1291, 3, 1.0, 318, 3, -0.5, 320, 3, -0.5
*EQUATION
3
1292, 1, 1.0, 319, 1, -0.5, 320, 1, -0.5
*EQUATION
3
1292, 2, 1.0, 319, 2, -0.5, 320, 2, -0.5
*EQUATION
3
1292, 3, 1.0, 319, 3, -0.5, 320, 3, -0.5
*EQUATION
3
1293, 1, 1.0, 251, 1, -0.5, 252, 1, -0.5
*EQUATION
3
1293, 2, 1.0, 251, 2, -0.5, 252, 2, -0.5
*EQUATION
3
1293, 3, 1.0, 251, 3, -0.5, 252, 3, -0.5
*EQUATION
5
1294, 1, 1.0, 251, 1, -0.25, 252, 1, -0.25, 273, 1, -0.25, 271, 1, -0.25
*EQUATION
5
1294, 2, 1.0, 251, 2, -0.25, 252, 2, -0.25, 273, 2, -0.25, 271, 2, -0.25
*EQUATION
5
1294, 3, 1.0, 251, 3, -0.25, 252, 3, -0.25, 273, 3, -0.25, 271, 3, -0.25
*EQUATION
3
1295, 1, 1.0, 271, 1, -0.5, 273, 1, -0.5
*EQUATION
3
1295, 2, 1.0, 271, 2, -0.5, 273, 2, -0.5
*EQUATION
3
1295, 3, 1.0, 271, 3, -0.5, 273, 3, -0.5
*EQUATION
3
1296, 1, 1.0, 252, 1, -0.5, 273, 1, -0.5
*EQUATION
3
1296, 2, 1.0, 252, 2, -0.5, 273, 2, -0.5
*EQUATION
3
1296, 3, 1.0, 252, 3, -0.5, 273, 3, -0.5
*EQUATION
5
1297, 1, 1.0, 251, 1, -0.25, 299, 1, -0.25, 300, 1, -0.25, 252, 1, -0.25
*EQUATION
5
1297, 2, 1.0, 251, 2, -0.25, 299, 2, -0.25, 300, 2, -0.25, 252, 2, -0.25
*EQUATION
5
1297, 3, 1.0, 251, 3, -0.25, 299, 3, -0.25, 300, 3, -0.25, 252, 3, -0.25
*EQUATION
5
1299, 1, 1.0, 271, 1, -0.25, 319, 1, -0.25, 321, 1, -0.25, 273, 1, -0.25
*EQUATION
5
1299, 2, 1.0, 271, 2, -0.25, 319, 2, -0.25, 321, 2, -0.25, 273, 2, -0.25
*EQUATION
5
1299, 3, 1.0, 271, 3, -0.25, 319, 3, -0.25, 321, 3, -0.25, 273, 3, -0.25
*EQUATION
3
1300, 1, 1.0, 252, 1, -0.5, 300, 1, -0.5
*EQUATION
3
1300, 2, 1.0, 252, 2, -0.5, 300, 2, -0.5
*EQUATION
3
1300, 3, 1.0, 252, 3, -0.5, 300, 3, -0.5
*EQUATION
3
1302, 1, 1.0, 273, 1, -0.5, 321, 1, -0.5
*EQUATION
3
1302, 2, 1.0, 273, 2, -0.5, 321, 2, -0.5
*EQUATION
3
1302, 3, 1.0, 273, 3, -0.5, 321, 3, -0.5
*EQUATION
3
1303, 1, 1.0, 299, 1, -0.5, 300, 1, -0.5
*EQUATION
3
1303, 2, 1.0, 299, 2, -0.5, 300, 2, -0.5
*EQUATION
3
1303, 3, 1.0, 299, 3, -0.5, 300, 3, -0.5
*EQUATION
5
1304, 1, 1.0, 299, 1, -0.25, 300, 1, -0.25, 321, 1, -0.25, 319, 1, -0.25
*EQUATION
5
1304, 2, 1.0, 299, 2, -0.25, 300, 2, -0.25, 321, 2, -0.25, 319, 2, -0.25
*EQUATION
5
1304, 3, 1.0, 299, 3, -0.25, 300, 3, -0.25, 321, 3, -0.25, 319, 3, -0.25
*EQUATION
3
1305, 1, 1.0, 319, 1, -0.5, 321, 1, -0.5
*EQUATION
3
1305, 2, 1.0, 319, 2, -0.5, 321, 2, -0.5
*EQUATION
3
1305, 3, 1.0, 319, 3, -0.5, 321, 3, -0.5
*EQUATION
3
1306, 1, 1.0, 300, 1, -0.5, 321, 1, -0.5
*EQUATION
3
1306, 2, 1.0, 300, 2, -0.5, 321, 2, -0.5
*EQUATION
3
1306, 3, 1.0, 300, 3, -0.5, 321, 3, -0.5
*EQUATION
3
1307, 1, 1.0, 252, 1, -0.5, 258, 1, -0.5
*EQUATION
3
1307, 2, 1.0, 252, 2, -0.5, 258, 2, -0.5
*EQUATION
3
1307, 3, 1.0, 252, 3, -0.5, 258, 3, -0.5
*EQUATION
5
1308, 1, 1.0, 252, 1, -0.25, 258, 1, -0.25, 275, 1, -0.25, 273, 1, -0.25
*EQUATION
5
1308, 2, 1.0, 252, 2, -0.25, 258, 2, -0.25, 275, 2, -0.25, 273, 2, -0.25
*EQUATION
5
1308, 3, 1.0, 252, 3, -0.25, 258, 3, -0.25, 275, 3, -0.25, 273, 3, -0.25
*EQUATION
3
1309, 1, 1.0, 273, 1, -0.5, 275, 1, -0.5
*EQUATION
3
1309, 2, 1.0, 273, 2, -0.5, 275, 2, -0.5
*EQUATION
3
1309, 3, 1.0, 273, 3, -0.5, 275, 3, -0.5
*EQUATION
3
1310, 1, 1.0, 258, 1, -0.5, 275, 1, -0.5
*EQUATION
3
1310, 2, 1.0, 258, 2, -0.5, 275, 2, -0.5
*EQUATION
3
1310, 3, 1.0, 258, 3, -0.5, 275, 3, -0.5
*EQUATION
5
1311, 1, 1.0, 252, 1, -0.25, 300, 1, -0.25, 306, 1, -0.25, 258, 1, -0.25
*EQUATION
5
1311, 2, 1.0, 252, 2, -0.25, 300, 2, -0.25, 306, 2, -0.25, 258, 2, -0.25
*EQUATION
5
1311, 3, 1.0, 252, 3, -0.25, 300, 3, -0.25, 306, 3, -0.25, 258, 3, -0.25
*EQUATION
5
1313, 1, 1.0, 273, 1, -0.25, 321, 1, -0.25, 323, 1, -0.25, 275, 1, -0.25
*EQUATION
5
1313, 2, 1.0, 273, 2, -0.25, 321, 2, -0.25, 323, 2, -0.25, 275, 2, -0.25
*EQUATION
5
1313, 3, 1.0, 273, 3, -0.25, 321, 3, -0.25, 323, 3, -0.25, 275, 3, -0.25
*EQUATION
3
1314, 1, 1.0, 258, 1, -0.5, 306, 1, -0.5
*EQUATION
3
1314, 2, 1.0, 258, 2, -0.5, 306, 2, -0.5
*EQUATION
3
1314, 3, 1.0, 258, 3, -0.5, 306, 3, -0.5
*EQUATION
3
1316, 1, 1.0, 275, 1, -0.5, 323, 1, -0.5
*EQUATION
3
1316, 2, 1.0, 275, 2, -0.5, 323, 2, -0.5
*EQUATION
3
1316, 3, 1.0, 275, 3, -0.5, 323, 3, -0.5
*EQUATION
3
1317, 1, 1.0, 300, 1, -0.5, 306, 1, -0.5
*EQUATION
3
1317, 2, 1.0, 300, 2, -0.5, 306, 2, -0.5
*EQUATION
3
1317, 3, 1.0, 300, 3, -0.5, 306, 3, -0.5
*EQUATION
5
1318, 1, 1.0, 300, 1, -0.25, 306, 1, -0.25, 323, 1, -0.25, 321, 1, -0.25
*EQUATION
5
1318, 2, 1.0, 300, 2, -0.25, 306, 2, -0.25, 323, 2, -0.25, 321, 2, -0.25
*EQUATION
5
1318, 3, 1.0, 300, 3, -0.25, 306, 3, -0.25, 323, 3, -0.25, 321, 3, -0.25
*EQUATION
3
1319, 1, 1.0, 321, 1, -0.5, 323, 1, -0.5
*EQUATION
3
1319, 2, 1.0, 321, 2, -0.5, 323, 2, -0.5
*EQUATION
3
1319, 3, 1.0, 321, 3, -0.5, 323, 3, -0.5
*EQUATION
3
1320, 1, 1.0, 306, 1, -0.5, 323, 1, -0.5
*EQUATION
3
1320, 2, 1.0, 306, 2, -0.5, 323, 2, -0.5
*EQUATION
3
1320, 3, 1.0, 306, 3, -0.5, 323, 3, -0.5
*EQUATION
3
1321, 1, 1.0, 258, 1, -0.5, 277, 1, -0.5
*EQUATION
3
1321, 2, 1.0, 258, 2, -0.5, 277, 2, -0.5
*EQUATION
3
1321, 3, 1.0, 258, 3, -0.5, 277, 3, -0.5
*EQUATION
5
1322, 1, 1.0, 258, 1, -0.25, 277, 1, -0.25, 278, 1, -0.25, 275, 1, -0.25
*EQUATION
5
1322, 2, 1.0, 258, 2, -0.25, 277, 2, -0.25, 278, 2, -0.25, 275, 2, -0.25
*EQUATION
5
1322, 3, 1.0, 258, 3, -0.25, 277, 3, -0.25, 278, 3, -0.25, 275, 3, -0.25
*EQUATION
3
1323, 1, 1.0, 275, 1, -0.5, 278, 1, -0.5
*EQUATION
3
1323, 2, 1.0, 275, 2, -0.5, 278, 2, -0.5
*EQUATION
3
1323, 3, 1.0, 275, 3, -0.5, 278, 3, -0.5
*EQUATION
3
1324, 1, 1.0, 277, 1, -0.5, 278, 1, -0.5
*EQUATION
3
1324, 2, 1.0, 277, 2, -0.5, 278, 2, -0.5
*EQUATION
3
1324, 3, 1.0, 277, 3, -0.5, 278, 3, -0.5
*EQUATION
3
1331, 1, 1.0, 306, 1, -0.5, 325, 1, -0.5
*EQUATION
3
1331, 2, 1.0, 306, 2, -0.5, 325, 2, -0.5
*EQUATION
3
1331, 3, 1.0, 306, 3, -0.5, 325, 3, -0.5
*EQUATION
5
1332, 1, 1.0, 306, 1, -0.25, 325, 1, -0.25, 326, 1, -0.25, 323, 1, -0.25
*EQUATION
5
1332, 2, 1.0, 306, 2, -0.25, 325, 2, -0.25, 326, 2, -0.25, 323, 2, -0.25
*EQUATION
5
1332, 3, 1.0, 306, 3, -0.25, 325, 3, -0.25, 326, 3, -0.25, 323, 3, -0.25
*EQUATION
3
1333, 1, 1.0, 323, 1, -0.5, 326, 1, -0.5
*EQUATION
3
1333, 2, 1.0, 323, 2, -0.5, 326, 2, -0.5
*EQUATION
3
1333, 3, 1.0, 323, 3, -0.5, 326, 3, -0.5
*EQUATION
3
1334, 1, 1.0, 325, 1, -0.5, 326, 1, -0.5
*EQUATION
3
1334, 2, 1.0, 325, 2, -0.5, 326, 2, -0.5
*EQUATION
3
1334, 3, 1.0, 325, 3, -0.5, 326, 3, -0.5
*EQUATION
3
1335, 1, 1.0, 275, 1, -0.5, 276, 1, -0.5
*EQUATION
3
1335, 2, 1.0, 275, 2, -0.5, 276, 2, -0.5
*EQUATION
3
1335, 3, 1.0, 275, 3, -0.5, 276, 3, -0.5
*EQUATION
5
1336, 1, 1.0, 275, 1, -0.25, 278, 1, -0.25, 279, 1, -0.25, 276, 1, -0.25
*EQUATION
5
1336, 2, 1.0, 275, 2, -0.25, 278, 2, -0.25, 279, 2, -0.25, 276, 2, -0.25
*EQUATION
5
1336, 3, 1.0, 275, 3, -0.25, 278, 3, -0.25, 279, 3, -0.25, 276, 3, -0.25
*EQUATION
3
1337, 1, 1.0, 276, 1, -0.5, 279, 1, -0.5
*EQUATION
3
1337, 2, 1.0, 276, 2, -0.5, 279, 2, -0.5
*EQUATION
3
1337, 3, 1.0, 276, 3, -0.5, 279, 3, -0.5
*EQUATION
3
1338, 1, 1.0, 278, 1, -0.5, 279, 1, -0.5
*EQUATION
3
1338, 2, 1.0, 278, 2, -0.5, 279, 2, -0.5
*EQUATION
3
1338, 3, 1.0, 278, 3, -0.5, 279, 3, -0.5
*EQUATION
5
1339, 1, 1.0, 275, 1, -0.25, 323, 1, -0.25, 324, 1, -0.25, 276, 1, -0.25
*EQUATION
5
1339, 2, 1.0, 275, 2, -0.25, 323, 2, -0.25, 324, 2, -0.25, 276, 2, -0.25
*EQUATION
5
1339, 3, 1.0, 275, 3, -0.25, 323, 3, -0.25, 324, 3, -0.25, 276, 3, -0.25
*EQUATION
3
1340, 1, 1.0, 276, 1, -0.5, 324, 1, -0.5
*EQUATION
3
1340, 2, 1.0, 276, 2, -0.5, 324, 2, -0.5
*EQUATION
3
1340, 3, 1.0, 276, 3, -0.5, 324, 3, -0.5
*EQUATION
3
1345, 1, 1.0, 323, 1, -0.5, 324, 1, -0.5
*EQUATION
3
1345, 2, 1.0, 323, 2, -0.5, 324, 2, -0.5
*EQUATION
3
1345, 3, 1.0, 323, 3, -0.5, 324, 3, -0.5
*EQUATION
5
1346, 1, 1.0, 323, 1, -0.25, 326, 1, -0.25, 327, 1, -0.25, 324, 1, -0.25
*EQUATION
5
1346, 2, 1.0, 323, 2, -0.25, 326, 2, -0.25, 327, 2, -0.25, 324, 2, -0.25
*EQUATION
5
1346, 3, 1.0, 323, 3, -0.25, 326, 3, -0.25, 327, 3, -0.25, 324, 3, -0.25
*EQUATION
3
1347, 1, 1.0, 324, 1, -0.5, 327, 1, -0.5
*EQUATION
3
1347, 2, 1.0, 324, 2, -0.5, 327, 2, -0.5
*EQUATION
3
1347, 3, 1.0, 324, 3, -0.5, 327, 3, -0.5
*EQUATION
3
1348, 1, 1.0, 326, 1, -0.5, 327, 1, -0.5
*EQUATION
3
1348, 2, 1.0, 326, 2, -0.5, 327, 2, -0.5
*EQUATION
3
1348, 3, 1.0, 326, 3, -0.5, 327, 3, -0.5
*EQUATION
3
1349, 1, 1.0, 277, 1, -0.5, 280, 1, -0.5
*EQUATION
3
1349, 2, 1.0, 277, 2, -0.5, 280, 2, -0.5
*EQUATION
3
1349, 3, 1.0, 277, 3, -0.5, 280, 3, -0.5
*EQUATION
5
1350, 1, 1.0, 277, 1, -0.25, 280, 1, -0.25, 281, 1, -0.25, 278, 1, -0.25
*EQUATION
5
1350, 2, 1.0, 277, 2, -0.25, 280, 2, -0.25, 281, 2, -0.25, 278, 2, -0.25
*EQUATION
5
1350, 3, 1.0, 277, 3, -0.25, 280, 3, -0.25, 281, 3, -0.25, 278, 3, -0.25
*EQUATION
3
1351, 1, 1.0, 278, 1, -0.5, 281, 1, -0.5
*EQUATION
3
1351, 2, 1.0, 278, 2, -0.5, 281, 2, -0.5
*EQUATION
3
1351, 3, 1.0, 278, 3, -0.5, 281, 3, -0.5
*EQUATION
3
1352, 1, 1.0, 280, 1, -0.5, 281, 1, -0.5
*EQUATION
3
1352, 2, 1.0, 280, 2, -0.5, 281, 2, -0.5
*EQUATION
3
1352, 3, 1.0, 280, 3, -0.5, 281, 3, -0.5
*EQUATION
3
1359, 1, 1.0, 325, 1, -0.5, 328, 1, -0.5
*EQUATION
3
1359, 2, 1.0, 325, 2, -0.5, 328, 2, -0.5
*EQUATION
3
1359, 3, 1.0, 325, 3, -0.5, 328, 3, -0.5
*EQUATION
5
1360, 1, 1.0, 325, 1, -0.25, 328, 1, -0.25, 329, 1, -0.25, 326, 1, -0.25
*EQUATION
5
1360, 2, 1.0, 325, 2, -0.25, 328, 2, -0.25, 329, 2, -0.25, 326, 2, -0.25
*EQUATION
5
1360, 3, 1.0, 325, 3, -0.25, 328, 3, -0.25, 329, 3, -0.25, 326, 3, -0.25
*EQUATION
3
1361, 1, 1.0, 326, 1, -0.5, 329, 1, -0.5
*EQUATION
3
1361, 2, 1.0, 326, 2, -0.5, 329, 2, -0.5
*EQUATION
3
1361, 3, 1.0, 326, 3, -0.5, 329, 3, -0.5
*EQUATION
3
1362, 1, 1.0, 328, 1, -0.5, 329, 1, -0.5
*EQUATION
3
1362, 2, 1.0, 328, 2, -0.5, 329, 2, -0.5
*EQUATION
3
1362, 3, 1.0, 328, 3, -0.5, 329, 3, -0.5
*EQUATION
5
1363, 1, 1.0, 278, 1, -0.25, 281, 1, -0.25, 282, 1, -0.25, 279, 1, -0.25
*EQUATION
5
1363, 2, 1.0, 278, 2, -0.25, 281, 2, -0.25, 282, 2, -0.25, 279, 2, -0.25
*EQUATION
5
1363, 3, 1.0, 278, 3, -0.25, 281, 3, -0.25, 282, 3, -0.25, 279, 3, -0.25
*EQUATION
3
1364, 1, 1.0, 279, 1, -0.5, 282, 1, -0.5
*EQUATION
3
1364, 2, 1.0, 279, 2, -0.5, 282, 2, -0.5
*EQUATION
3
1364, 3, 1.0, 279, 3, -0.5, 282, 3, -0.5
*EQUATION
3
1365, 1, 1.0, 281, 1, -0.5, 282, 1, -0.5
*EQUATION
3
1365, 2, 1.0, 281, 2, -0.5, 282, 2, -0.5
*EQUATION
3
1365, 3, 1.0, 281, 3, -0.5, 282, 3, -0.5
*EQUATION
5
1370, 1, 1.0, 326, 1, -0.25, 329, 1, -0.25, 330, 1, -0.25, 327, 1, -0.25
*EQUATION
5
1370, 2, 1.0, 326, 2, -0.25, 329, 2, -0.25, 330, 2, -0.25, 327, 2, -0.25
*EQUATION
5
1370, 3, 1.0, 326, 3, -0.25, 329, 3, -0.25, 330, 3, -0.25, 327, 3, -0.25
*EQUATION
3
1371, 1, 1.0, 327, 1, -0.5, 330, 1, -0.5
*EQUATION
3
1371, 2, 1.0, 327, 2, -0.5, 330, 2, -0.5
*EQUATION
3
1371, 3, 1.0, 327, 3, -0.5, 330, 3, -0.5
*EQUATION
3
1372, 1, 1.0, 329, 1, -0.5, 330, 1, -0.5
*EQUATION
3
1372, 2, 1.0, 329, 2, -0.5, 330, 2, -0.5
*EQUATION
3
1372, 3, 1.0, 329, 3, -0.5, 330, 3, -0.5
*EQUATION
3
1373, 1, 1.0, 280, 1, -0.5, 283, 1, -0.5
*EQUATION
3
1373, 2, 1.0, 280, 2, -0.5, 283, 2, -0.5
*EQUATION
3
1373, 3, 1.0, 280, 3, -0.5, 283, 3, -0.5
*EQUATION
5
1374, 1, 1.0, 280, 1, -0.25, 283, 1, -0.25, 284, 1, -0.25, 281, 1, -0.25
*EQUATION
5
1374, 2, 1.0, 280, 2, -0.25, 283, 2, -0.25, 284, 2, -0.25, 281, 2, -0.25
*EQUATION
5
1374, 3, 1.0, 280, 3, -0.25, 283, 3, -0.25, 284, 3, -0.25, 281, 3, -0.25
*EQUATION
3
1375, 1, 1.0, 281, 1, -0.5, 284, 1, -0.5
*EQUATION
3
1375, 2, 1.0, 281, 2, -0.5, 284, 2, -0.5
*EQUATION
3
1375, 3, 1.0, 281, 3, -0.5, 284, 3, -0.5
*EQUATION
3
1376, 1, 1.0, 283, 1, -0.5, 284, 1, -0.5
*EQUATION
3
1376, 2, 1.0, 283, 2, -0.5, 284, 2, -0.5
*EQUATION
3
1376, 3, 1.0, 283, 3, -0.5, 284, 3, -0.5
*EQUATION
3
1383, 1, 1.0, 328, 1, -0.5, 331, 1, -0.5
*EQUATION
3
1383, 2, 1.0, 328, 2, -0.5, 331, 2, -0.5
*EQUATION
3
1383, 3, 1.0, 328, 3, -0.5, 331, 3, -0.5
*EQUATION
5
1384, 1, 1.0, 328, 1, -0.25, 331, 1, -0.25, 332, 1, -0.25, 329, 1, -0.25
*EQUATION
5
1384, 2, 1.0, 328, 2, -0.25, 331, 2, -0.25, 332, 2, -0.25, 329, 2, -0.25
*EQUATION
5
1384, 3, 1.0, 328, 3, -0.25, 331, 3, -0.25, 332, 3, -0.25, 329, 3, -0.25
*EQUATION
3
1385, 1, 1.0, 329, 1, -0.5, 332, 1, -0.5
*EQUATION
3
1385, 2, 1.0, 329, 2, -0.5, 332, 2, -0.5
*EQUATION
3
1385, 3, 1.0, 329, 3, -0.5, 332, 3, -0.5
*EQUATION
3
1386, 1, 1.0, 331, 1, -0.5, 332, 1, -0.5
*EQUATION
3
1386, 2, 1.0, 331, 2, -0.5, 332, 2, -0.5
*EQUATION
3
1386, 3, 1.0, 331, 3, -0.5, 332, 3, -0.5
*EQUATION
5
1387, 1, 1.0, 281, 1, -0.25, 284, 1, -0.25, 285, 1, -0.25, 282, 1, -0.25
*EQUATION
5
1387, 2, 1.0, 281, 2, -0.25, 284, 2, -0.25, 285, 2, -0.25, 282, 2, -0.25
*EQUATION
5
1387, 3, 1.0, 281, 3, -0.25, 284, 3, -0.25, 285, 3, -0.25, 282, 3, -0.25
*EQUATION
3
1388, 1, 1.0, 282, 1, -0.5, 285, 1, -0.5
*EQUATION
3
1388, 2, 1.0, 282, 2, -0.5, 285, 2, -0.5
*EQUATION
3
1388, 3, 1.0, 282, 3, -0.5, 285, 3, -0.5
*EQUATION
3
1389, 1, 1.0, 284, 1, -0.5, 285, 1, -0.5
*EQUATION
3
1389, 2, 1.0, 284, 2, -0.5, 285, 2, -0.5
*EQUATION
3
1389, 3, 1.0, 284, 3, -0.5, 285, 3, -0.5
*EQUATION
5
1394, 1, 1.0, 329, 1, -0.25, 332, 1, -0.25, 333, 1, -0.25, 330, 1, -0.25
*EQUATION
5
1394, 2, 1.0, 329, 2, -0.25, 332, 2, -0.25, 333, 2, -0.25, 330, 2, -0.25
*EQUATION
5
1394, 3, 1.0, 329, 3, -0.25, 332, 3, -0.25, 333, 3, -0.25, 330, 3, -0.25
*EQUATION
3
1395, 1, 1.0, 330, 1, -0.5, 333, 1, -0.5
*EQUATION
3
1395, 2, 1.0, 330, 2, -0.5, 333, 2, -0.5
*EQUATION
3
1395, 3, 1.0, 330, 3, -0.5, 333, 3, -0.5
*EQUATION
3
1396, 1, 1.0, 332, 1, -0.5, 333, 1, -0.5
*EQUATION
3
1396, 2, 1.0, 332, 2, -0.5, 333, 2, -0.5
*EQUATION
3
1396, 3, 1.0, 332, 3, -0.5, 333, 3, -0.5
*EQUATION
3
1397, 1, 1.0, 283, 1, -0.5, 286, 1, -0.5
*EQUATION
3
1397, 2, 1.0, 283, 2, -0.5, 286, 2, -0.5
*EQUATION
3
1397, 3, 1.0, 283, 3, -0.5, 286, 3, -0.5
*EQUATION
5
1398, 1, 1.0, 283, 1, -0.25, 286, 1, -0.25, 287, 1, -0.25, 284, 1, -0.25
*EQUATION
5
1398, 2, 1.0, 283, 2, -0.25, 286, 2, -0.25, 287, 2, -0.25, 284, 2, -0.25
*EQUATION
5
1398, 3, 1.0, 283, 3, -0.25, 286, 3, -0.25, 287, 3, -0.25, 284, 3, -0.25
*EQUATION
3
1399, 1, 1.0, 284, 1, -0.5, 287, 1, -0.5
*EQUATION
3
1399, 2, 1.0, 284, 2, -0.5, 287, 2, -0.5
*EQUATION
3
1399, 3, 1.0, 284, 3, -0.5, 287, 3, -0.5
*EQUATION
3
1400, 1, 1.0, 286, 1, -0.5, 287, 1, -0.5
*EQUATION
3
1400, 2, 1.0, 286, 2, -0.5, 287, 2, -0.5
*EQUATION
3
1400, 3, 1.0, 286, 3, -0.5, 287, 3, -0.5
*EQUATION
3
1407, 1, 1.0, 331, 1, -0.5, 334, 1, -0.5
*EQUATION
3
1407, 2, 1.0, 331, 2, -0.5, 334, 2, -0.5
*EQUATION
3
1407, 3, 1.0, 331, 3, -0.5, 334, 3, -0.5
*EQUATION
5
1408, 1, 1.0, 331, 1, -0.25, 334, 1, -0.25, 335, 1, -0.25, 332, 1, -0.25
*EQUATION
5
1408, 2, 1.0, 331, 2, -0.25, 334, 2, -0.25, 335, 2, -0.25, 332, 2, -0.25
*EQUATION
5
1408, 3, 1.0, 331, 3, -0.25, 334, 3, -0.25, 335, 3, -0.25, 332, 3, -0.25
*EQUATION
3
1409, 1, 1.0, 332, 1, -0.5, 335, 1, -0.5
*EQUATION
3
1409, 2, 1.0, 332, 2, -0.5, 335, 2, -0.5
*EQUATION
3
1409, 3, 1.0, 332, 3, -0.5, 335, 3, -0.5
*EQUATION
3
1410, 1, 1.0, 334, 1, -0.5, 335, 1, -0.5
*EQUATION
3
1410, 2, 1.0, 334, 2, -0.5, 335, 2, -0.5
*EQUATION
3
1410, 3, 1.0, 334, 3, -0.5, 335, 3, -0.5
*EQUATION
5
1411, 1, 1.0, 284, 1, -0.25, 287, 1, -0.25, 288, 1, -0.25, 285, 1, -0.25
*EQUATION
5
1411, 2, 1.0, 284, 2, -0.25, 287, 2, -0.25, 288, 2, -0.25, 285, 2, -0.25
*EQUATION
5
1411, 3, 1.0, 284, 3, -0.25, 287, 3, -0.25, 288, 3, -0.25, 285, 3, -0.25
*EQUATION
3
1412, 1, 1.0, 285, 1, -0.5, 288, 1, -0.5
*EQUATION
3
1412, 2, 1.0, 285, 2, -0.5, 288, 2, -0.5
*EQUATION
3
1412, 3, 1.0, 285, 3, -0.5, 288, 3, -0.5
*EQUATION
3
1413, 1, 1.0, 287, 1, -0.5, 288, 1, -0.5
*EQUATION
3
1413, 2, 1.0, 287, 2, -0.5, 288, 2, -0.5
*EQUATION
3
1413, 3, 1.0, 287, 3, -0.5, 288, 3, -0.5
*EQUATION
5
1418, 1, 1.0, 332, 1, -0.25, 335, 1, -0.25, 336, 1, -0.25, 333, 1, -0.25
*EQUATION
5
1418, 2, 1.0, 332, 2, -0.25, 335, 2, -0.25, 336, 2, -0.25, 333, 2, -0.25
*EQUATION
5
1418, 3, 1.0, 332, 3, -0.25, 335, 3, -0.25, 336, 3, -0.25, 333, 3, -0.25
*EQUATION
3
1419, 1, 1.0, 333, 1, -0.5, 336, 1, -0.5
*EQUATION
3
1419, 2, 1.0, 333, 2, -0.5, 336, 2, -0.5
*EQUATION
3
1419, 3, 1.0, 333, 3, -0.5, 336, 3, -0.5
*EQUATION
3
1420, 1, 1.0, 335, 1, -0.5, 336, 1, -0.5
*EQUATION
3
1420, 2, 1.0, 335, 2, -0.5, 336, 2, -0.5
*EQUATION
3
1420, 3, 1.0, 335, 3, -0.5, 336, 3, -0.5
*EQUATION
5
1421, 1, 1.0, 559, 1, -0.25, 561, 1, -0.25, 562, 1, -0.25, 560, 1, -0.25
*EQUATION
5
1421, 2, 1.0, 559, 2, -0.25, 561, 2, -0.25, 562, 2, -0.25, 560, 2, -0.25
*EQUATION
5
1421, 3, 1.0, 559, 3, -0.25, 561, 3, -0.25, 562, 3, -0.25, 560, 3, -0.25
*EQUATION
3
1422, 1, 1.0, 560, 1, -0.5, 562, 1, -0.5
*EQUATION
3
1422, 2, 1.0, 560, 2, -0.5, 562, 2, -0.5
*EQUATION
3
1422, 3, 1.0, 560, 3, -0.5, 562, 3, -0.5
*EQUATION
3
1423, 1, 1.0, 561, 1, -0.5, 562, 1, -0.5
*EQUATION
3
1423, 2, 1.0, 561, 2, -0.5, 562, 2, -0.5
*EQUATION
3
1423, 3, 1.0, 561, 3, -0.5, 562, 3, -0.5
*EQUATION
5
1428, 1, 1.0, 607, 1, -0.25, 609, 1, -0.25, 610, 1, -0.25, 608, 1, -0.25
*EQUATION
5
1428, 2, 1.0, 607, 2, -0.25, 609, 2, -0.25, 610, 2, -0.25, 608, 2, -0.25
*EQUATION
5
1428, 3, 1.0, 607, 3, -0.25, 609, 3, -0.25, 610, 3, -0.25, 608, 3, -0.25
*EQUATION
3
1429, 1, 1.0, 608, 1, -0.5, 610, 1, -0.5
*EQUATION
3
1429, 2, 1.0, 608, 2, -0.5, 610, 2, -0.5
*EQUATION
3
1429, 3, 1.0, 608, 3, -0.5, 610, 3, -0.5
*EQUATION
3
1430, 1, 1.0, 609, 1, -0.5, 610, 1, -0.5
*EQUATION
3
1430, 2, 1.0, 609, 2, -0.5, 610, 2, -0.5
*EQUATION
3
1430, 3, 1.0, 609, 3, -0.5, 610, 3, -0.5
*EQUATION
5
1431, 1, 1.0, 561, 1, -0.25, 563, 1, -0.25, 564, 1, -0.25, 562, 1, -0.25
*EQUATION
5
1431, 2, 1.0, 561, 2, -0.25, 563, 2, -0.25, 564, 2, -0.25, 562, 2, -0.25
*EQUATION
5
1431, 3, 1.0, 561, 3, -0.25, 563, 3, -0.25, 564, 3, -0.25, 562, 3, -0.25
*EQUATION
3
1432, 1, 1.0, 562, 1, -0.5, 564, 1, -0.5
*EQUATION
3
1432, 2, 1.0, 562, 2, -0.5, 564, 2, -0.5
*EQUATION
3
1432, 3, 1.0, 562, 3, -0.5, 564, 3, -0.5
*EQUATION
5
1435, 1, 1.0, 609, 1, -0.25, 611, 1, -0.25, 612, 1, -0.25, 610, 1, -0.25
*EQUATION
5
1435, 2, 1.0, 609, 2, -0.25, 611, 2, -0.25, 612, 2, -0.25, 610, 2, -0.25
*EQUATION
5
1435, 3, 1.0, 609, 3, -0.25, 611, 3, -0.25, 612, 3, -0.25, 610, 3, -0.25
*EQUATION
3
1436, 1, 1.0, 610, 1, -0.5, 612, 1, -0.5
*EQUATION
3
1436, 2, 1.0, 610, 2, -0.5, 612, 2, -0.5
*EQUATION
3
1436, 3, 1.0, 610, 3, -0.5, 612, 3, -0.5
*EQUATION
3
1437, 1, 1.0, 604, 1, -0.5, 652, 1, -0.5
*EQUATION
3
1437, 2, 1.0, 604, 2, -0.5, 652, 2, -0.5
*EQUATION
3
1437, 3, 1.0, 604, 3, -0.5, 652, 3, -0.5
*EQUATION
5
1438, 1, 1.0, 604, 1, -0.25, 652, 1, -0.25, 653, 1, -0.25, 605, 1, -0.25
*EQUATION
5
1438, 2, 1.0, 604, 2, -0.25, 652, 2, -0.25, 653, 2, -0.25, 605, 2, -0.25
*EQUATION
5
1438, 3, 1.0, 604, 3, -0.25, 652, 3, -0.25, 653, 3, -0.25, 605, 3, -0.25
*EQUATION
3
1439, 1, 1.0, 605, 1, -0.5, 653, 1, -0.5
*EQUATION
3
1439, 2, 1.0, 605, 2, -0.5, 653, 2, -0.5
*EQUATION
3
1439, 3, 1.0, 605, 3, -0.5, 653, 3, -0.5
*EQUATION
5
1442, 1, 1.0, 605, 1, -0.25, 653, 1, -0.25, 655, 1, -0.25, 607, 1, -0.25
*EQUATION
5
1442, 2, 1.0, 605, 2, -0.25, 653, 2, -0.25, 655, 2, -0.25, 607, 2, -0.25
*EQUATION
5
1442, 3, 1.0, 605, 3, -0.25, 653, 3, -0.25, 655, 3, -0.25, 607, 3, -0.25
*EQUATION
3
1443, 1, 1.0, 587, 1, -0.5, 635, 1, -0.5
*EQUATION
3
1443, 2, 1.0, 587, 2, -0.5, 635, 2, -0.5
*EQUATION
3
1443, 3, 1.0, 587, 3, -0.5, 635, 3, -0.5
*EQUATION
5
1444, 1, 1.0, 587, 1, -0.25, 635, 1, -0.25, 655, 1, -0.25, 607, 1, -0.25
*EQUATION
5
1444, 2, 1.0, 587, 2, -0.25, 635, 2, -0.25, 655, 2, -0.25, 607, 2, -0.25
*EQUATION
5
1444, 3, 1.0, 587, 3, -0.25, 635, 3, -0.25, 655, 3, -0.25, 607, 3, -0.25
*EQUATION
3
1445, 1, 1.0, 607, 1, -0.5, 655, 1, -0.5
*EQUATION
3
1445, 2, 1.0, 607, 2, -0.5, 655, 2, -0.5
*EQUATION
3
1445, 3, 1.0, 607, 3, -0.5, 655, 3, -0.5
*EQUATION
3
1446, 1, 1.0, 652, 1, -0.5, 653, 1, -0.5
*EQUATION
3
1446, 2, 1.0, 652, 2, -0.5, 653, 2, -0.5
*EQUATION
3
1446, 3, 1.0, 652, 3, -0.5, 653, 3, -0.5
*EQUATION
3
1447, 1, 1.0, 635, 1, -0.5, 652, 1, -0.5
*EQUATION
3
1447, 2, 1.0, 635, 2, -0.5, 652, 2, -0.5
*EQUATION
3
1447, 3, 1.0, 635, 3, -0.5, 652, 3, -0.5
*EQUATION
5
1448, 1, 1.0, 652, 1, -0.25, 635, 1, -0.25, 655, 1, -0.25, 653, 1, -0.25
*EQUATION
5
1448, 2, 1.0, 652, 2, -0.25, 635, 2, -0.25, 655, 2, -0.25, 653, 2, -0.25
*EQUATION
5
1448, 3, 1.0, 652, 3, -0.25, 635, 3, -0.25, 655, 3, -0.25, 653, 3, -0.25
*EQUATION
3
1449, 1, 1.0, 653, 1, -0.5, 655, 1, -0.5
*EQUATION
3
1449, 2, 1.0, 653, 2, -0.5, 655, 2, -0.5
*EQUATION
3
1449, 3, 1.0, 653, 3, -0.5, 655, 3, -0.5
*EQUATION
3
1450, 1, 1.0, 635, 1, -0.5, 655, 1, -0.5
*EQUATION
3
1450, 2, 1.0, 635, 2, -0.5, 655, 2, -0.5
*EQUATION
3
1450, 3, 1.0, 635, 3, -0.5, 655, 3, -0.5
*EQUATION
3
1451, 1, 1.0, 643, 1, -0.5, 645, 1, -0.5
*EQUATION
3
1451, 2, 1.0, 643, 2, -0.5, 645, 2, -0.5
*EQUATION
3
1451, 3, 1.0, 643, 3, -0.5, 645, 3, -0.5
*EQUATION
3
1452, 1, 1.0, 643, 1, -0.5, 644, 1, -0.5
*EQUATION
3
1452, 2, 1.0, 643, 2, -0.5, 644, 2, -0.5
*EQUATION
3
1452, 3, 1.0, 643, 3, -0.5, 644, 3, -0.5
*EQUATION
5
1453, 1, 1.0, 643, 1, -0.25, 644, 1, -0.25, 646, 1, -0.25, 645, 1, -0.25
*EQUATION
5
1453, 2, 1.0, 643, 2, -0.25, 644, 2, -0.25, 646, 2, -0.25, 645, 2, -0.25
*EQUATION
5
1453, 3, 1.0, 643, 3, -0.25, 644, 3, -0.25, 646, 3, -0.25, 645, 3, -0.25
*EQUATION
3
1454, 1, 1.0, 645, 1, -0.5, 646, 1, -0.5
*EQUATION
3
1454, 2, 1.0, 645, 2, -0.5, 646, 2, -0.5
*EQUATION
3
1454, 3, 1.0, 645, 3, -0.5, 646, 3, -0.5
*EQUATION
3
1455, 1, 1.0, 644, 1, -0.5, 646, 1, -0.5
*EQUATION
3
1455, 2, 1.0, 644, 2, -0.5, 646, 2, -0.5
*EQUATION
3
1455, 3, 1.0, 644, 3, -0.5, 646, 3, -0.5
*EQUATION
3
1465, 1, 1.0, 691, 1, -0.5, 693, 1, -0.5
*EQUATION
3
1465, 2, 1.0, 691, 2, -0.5, 693, 2, -0.5
*EQUATION
3
1465, 3, 1.0, 691, 3, -0.5, 693, 3, -0.5
*EQUATION
3
1466, 1, 1.0, 691, 1, -0.5, 692, 1, -0.5
*EQUATION
3
1466, 2, 1.0, 691, 2, -0.5, 692, 2, -0.5
*EQUATION
3
1466, 3, 1.0, 691, 3, -0.5, 692, 3, -0.5
*EQUATION
5
1467, 1, 1.0, 691, 1, -0.25, 692, 1, -0.25, 694, 1, -0.25, 693, 1, -0.25
*EQUATION
5
1467, 2, 1.0, 691, 2, -0.25, 692, 2, -0.25, 694, 2, -0.25, 693, 2, -0.25
*EQUATION
5
1467, 3, 1.0, 691, 3, -0.25, 692, 3, -0.25, 694, 3, -0.25, 693, 3, -0.25
*EQUATION
3
1468, 1, 1.0, 693, 1, -0.5, 694, 1, -0.5
*EQUATION
3
1468, 2, 1.0, 693, 2, -0.5, 694, 2, -0.5
*EQUATION
3
1468, 3, 1.0, 693, 3, -0.5, 694, 3, -0.5
*EQUATION
3
1469, 1, 1.0, 692, 1, -0.5, 694, 1, -0.5
*EQUATION
3
1469, 2, 1.0, 692, 2, -0.5, 694, 2, -0.5
*EQUATION
3
1469, 3, 1.0, 692, 3, -0.5, 694, 3, -0.5
*EQUATION
3
1470, 1, 1.0, 645, 1, -0.5, 647, 1, -0.5
*EQUATION
3
1470, 2, 1.0, 645, 2, -0.5, 647, 2, -0.5
*EQUATION
3
1470, 3, 1.0, 645, 3, -0.5, 647, 3, -0.5
*EQUATION
5
1471, 1, 1.0, 645, 1, -0.25, 646, 1, -0.25, 648, 1, -0.25, 647, 1, -0.25
*EQUATION
5
1471, 2, 1.0, 645, 2, -0.25, 646, 2, -0.25, 648, 2, -0.25, 647, 2, -0.25
*EQUATION
5
1471, 3, 1.0, 645, 3, -0.25, 646, 3, -0.25, 648, 3, -0.25, 647, 3, -0.25
*EQUATION
3
1472, 1, 1.0, 647, 1, -0.5, 648, 1, -0.5
*EQUATION
3
1472, 2, 1.0, 647, 2, -0.5, 648, 2, -0.5
*EQUATION
3
1472, 3, 1.0, 647, 3, -0.5, 648, 3, -0.5
*EQUATION
3
1473, 1, 1.0, 646, 1, -0.5, 648, 1, -0.5
*EQUATION
3
1473, 2, 1.0, 646, 2, -0.5, 648, 2, -0.5
*EQUATION
3
1473, 3, 1.0, 646, 3, -0.5, 648, 3, -0.5
*EQUATION
3
1480, 1, 1.0, 693, 1, -0.5, 695, 1, -0.5
*EQUATION
3
1480, 2, 1.0, 693, 2, -0.5, 695, 2, -0.5
*EQUATION
3
1480, 3, 1.0, 693, 3, -0.5, 695, 3, -0.5
*EQUATION
5
1481, 1, 1.0, 693, 1, -0.25, 694, 1, -0.25, 696, 1, -0.25, 695, 1, -0.25
*EQUATION
5
1481, 2, 1.0, 693, 2, -0.25, 694, 2, -0.25, 696, 2, -0.25, 695, 2, -0.25
*EQUATION
5
1481, 3, 1.0, 693, 3, -0.25, 694, 3, -0.25, 696, 3, -0.25, 695, 3, -0.25
*EQUATION
3
1482, 1, 1.0, 695, 1, -0.5, 696, 1, -0.5
*EQUATION
3
1482, 2, 1.0, 695, 2, -0.5, 696, 2, -0.5
*EQUATION
3
1482, 3, 1.0, 695, 3, -0.5, 696, 3, -0.5
*EQUATION
3
1483, 1, 1.0, 694, 1, -0.5, 696, 1, -0.5
*EQUATION
3
1483, 2, 1.0, 694, 2, -0.5, 696, 2, -0.5
*EQUATION
3
1483, 3, 1.0, 694, 3, -0.5, 696, 3, -0.5
*EQUATION
3
1484, 1, 1.0, 644, 1, -0.5, 649, 1, -0.5
*EQUATION
3
1484, 2, 1.0, 644, 2, -0.5, 649, 2, -0.5
*EQUATION
3
1484, 3, 1.0, 644, 3, -0.5, 649, 3, -0.5
*EQUATION
5
1485, 1, 1.0, 644, 1, -0.25, 649, 1, -0.25, 650, 1, -0.25, 646, 1, -0.25
*EQUATION
5
1485, 2, 1.0, 644, 2, -0.25, 649, 2, -0.25, 650, 2, -0.25, 646, 2, -0.25
*EQUATION
5
1485, 3, 1.0, 644, 3, -0.25, 649, 3, -0.25, 650, 3, -0.25, 646, 3, -0.25
*EQUATION
3
1486, 1, 1.0, 646, 1, -0.5, 650, 1, -0.5
*EQUATION
3
1486, 2, 1.0, 646, 2, -0.5, 650, 2, -0.5
*EQUATION
3
1486, 3, 1.0, 646, 3, -0.5, 650, 3, -0.5
*EQUATION
3
1487, 1, 1.0, 649, 1, -0.5, 650, 1, -0.5
*EQUATION
3
1487, 2, 1.0, 649, 2, -0.5, 650, 2, -0.5
*EQUATION
3
1487, 3, 1.0, 649, 3, -0.5, 650, 3, -0.5
*EQUATION
3
1494, 1, 1.0, 692, 1, -0.5, 697, 1, -0.5
*EQUATION
3
1494, 2, 1.0, 692, 2, -0.5, 697, 2, -0.5
*EQUATION
3
1494, 3, 1.0, 692, 3, -0.5, 697, 3, -0.5
*EQUATION
5
1495, 1, 1.0, 692, 1, -0.25, 697, 1, -0.25, 698, 1, -0.25, 694, 1, -0.25
*EQUATION
5
1495, 2, 1.0, 692, 2, -0.25, 697, 2, -0.25, 698, 2, -0.25, 694, 2, -0.25
*EQUATION
5
1495, 3, 1.0, 692, 3, -0.25, 697, 3, -0.25, 698, 3, -0.25, 694, 3, -0.25
*EQUATION
3
1496, 1, 1.0, 694, 1, -0.5, 698, 1, -0.5
*EQUATION
3
1496, 2, 1.0, 694, 2, -0.5, 698, 2, -0.5
*EQUATION
3
1496, 3, 1.0, 694, 3, -0.5, 698, 3, -0.5
*EQUATION
3
1497, 1, 1.0, 697, 1, -0.5, 698, 1, -0.5
*EQUATION
3
1497, 2, 1.0, 697, 2, -0.5, 698, 2, -0.5
*EQUATION
3
1497, 3, 1.0, 697, 3, -0.5, 698, 3, -0.5
*EQUATION
5
1498, 1, 1.0, 646, 1, -0.25, 650, 1, -0.25, 651, 1, -0.25, 648, 1, -0.25
*EQUATION
5
1498, 2, 1.0, 646, 2, -0.25, 650, 2, -0.25, 651, 2, -0.25, 648, 2, -0.25
*EQUATION
5
1498, 3, 1.0, 646, 3, -0.25, 650, 3, -0.25, 651, 3, -0.25, 648, 3, -0.25
*EQUATION
3
1499, 1, 1.0, 648, 1, -0.5, 651, 1, -0.5
*EQUATION
3
1499, 2, 1.0, 648, 2, -0.5, 651, 2, -0.5
*EQUATION
3
1499, 3, 1.0, 648, 3, -0.5, 651, 3, -0.5
*EQUATION
3
1500, 1, 1.0, 650, 1, -0.5, 651, 1, -0.5
*EQUATION
3
1500, 2, 1.0, 650, 2, -0.5, 651, 2, -0.5
*EQUATION
3
1500, 3, 1.0, 650, 3, -0.5, 651, 3, -0.5
*EQUATION
5
1505, 1, 1.0, 694, 1, -0.25, 698, 1, -0.25, 699, 1, -0.25, 696, 1, -0.25
*EQUATION
5
1505, 2, 1.0, 694, 2, -0.25, 698, 2, -0.25, 699, 2, -0.25, 696, 2, -0.25
*EQUATION
5
1505, 3, 1.0, 694, 3, -0.25, 698, 3, -0.25, 699, 3, -0.25, 696, 3, -0.25
*EQUATION
3
1506, 1, 1.0, 696, 1, -0.5, 699, 1, -0.5
*EQUATION
3
1506, 2, 1.0, 696, 2, -0.5, 699, 2, -0.5
*EQUATION
3
1506, 3, 1.0, 696, 3, -0.5, 699, 3, -0.5
*EQUATION
3
1507, 1, 1.0, 698, 1, -0.5, 699, 1, -0.5
*EQUATION
3
1507, 2, 1.0, 698, 2, -0.5, 699, 2, -0.5
*EQUATION
3
1507, 3, 1.0, 698, 3, -0.5, 699, 3, -0.5
*EQUATION
3
1508, 1, 1.0, 649, 1, -0.5, 652, 1, -0.5
*EQUATION
3
1508, 2, 1.0, 649, 2, -0.5, 652, 2, -0.5
*EQUATION
3
1508, 3, 1.0, 649, 3, -0.5, 652, 3, -0.5
*EQUATION
5
1509, 1, 1.0, 649, 1, -0.25, 652, 1, -0.25, 653, 1, -0.25, 650, 1, -0.25
*EQUATION
5
1509, 2, 1.0, 649, 2, -0.25, 652, 2, -0.25, 653, 2, -0.25, 650, 2, -0.25
*EQUATION
5
1509, 3, 1.0, 649, 3, -0.25, 652, 3, -0.25, 653, 3, -0.25, 650, 3, -0.25
*EQUATION
3
1510, 1, 1.0, 650, 1, -0.5, 653, 1, -0.5
*EQUATION
3
1510, 2, 1.0, 650, 2, -0.5, 653, 2, -0.5
*EQUATION
3
1510, 3, 1.0, 650, 3, -0.5, 653, 3, -0.5
*EQUATION
3
1514, 1, 1.0, 652, 1, -0.5, 700, 1, -0.5
*EQUATION
3
1514, 2, 1.0, 652, 2, -0.5, 700, 2, -0.5
*EQUATION
3
1514, 3, 1.0, 652, 3, -0.5, 700, 3, -0.5
*EQUATION
5
1515, 1, 1.0, 652, 1, -0.25, 700, 1, -0.25, 701, 1, -0.25, 653, 1, -0.25
*EQUATION
5
1515, 2, 1.0, 652, 2, -0.25, 700, 2, -0.25, 701, 2, -0.25, 653, 2, -0.25
*EQUATION
5
1515, 3, 1.0, 652, 3, -0.25, 700, 3, -0.25, 701, 3, -0.25, 653, 3, -0.25
*EQUATION
3
1516, 1, 1.0, 653, 1, -0.5, 701, 1, -0.5
*EQUATION
3
1516, 2, 1.0, 653, 2, -0.5, 701, 2, -0.5
*EQUATION
3
1516, 3, 1.0, 653, 3, -0.5, 701, 3, -0.5
*EQUATION
3
1517, 1, 1.0, 697, 1, -0.5, 700, 1, -0.5
*EQUATION
3
1517, 2, 1.0, 697, 2, -0.5, 700, 2, -0.5
*EQUATION
3
1517, 3, 1.0, 697, 3, -0.5, 700, 3, -0.5
*EQUATION
5
1518, 1, 1.0, 697, 1, -0.25, 700, 1, -0.25, 701, 1, -0.25, 698, 1, -0.25
*EQUATION
5
1518, 2, 1.0, 697, 2, -0.25, 700, 2, -0.25, 701, 2, -0.25, 698, 2, -0.25
*EQUATION
5
1518, 3, 1.0, 697, 3, -0.25, 700, 3, -0.25, 701, 3, -0.25, 698, 3, -0.25
*EQUATION
3
1519, 1, 1.0, 698, 1, -0.5, 701, 1, -0.5
*EQUATION
3
1519, 2, 1.0, 698, 2, -0.5, 701, 2, -0.5
*EQUATION
3
1519, 3, 1.0, 698, 3, -0.5, 701, 3, -0.5
*EQUATION
3
1520, 1, 1.0, 700, 1, -0.5, 701, 1, -0.5
*EQUATION
3
1520, 2, 1.0, 700, 2, -0.5, 701, 2, -0.5
*EQUATION
3
1520, 3, 1.0, 700, 3, -0.5, 701, 3, -0.5
*EQUATION
5
1521, 1, 1.0, 650, 1, -0.25, 653, 1, -0.25, 654, 1, -0.25, 651, 1, -0.25
*EQUATION
5
1521, 2, 1.0, 650, 2, -0.25, 653, 2, -0.25, 654, 2, -0.25, 651, 2, -0.25
*EQUATION
5
1521, 3, 1.0, 650, 3, -0.25, 653, 3, -0.25, 654, 3, -0.25, 651, 3, -0.25
*EQUATION
3
1522, 1, 1.0, 651, 1, -0.5, 654, 1, -0.5
*EQUATION
3
1522, 2, 1.0, 651, 2, -0.5, 654, 2, -0.5
*EQUATION
3
1522, 3, 1.0, 651, 3, -0.5, 654, 3, -0.5
*EQUATION
3
1523, 1, 1.0, 653, 1, -0.5, 654, 1, -0.5
*EQUATION
3
1523, 2, 1.0, 653, 2, -0.5, 654, 2, -0.5
*EQUATION
3
1523, 3, 1.0, 653, 3, -0.5, 654, 3, -0.5
*EQUATION
5
1528, 1, 1.0, 698, 1, -0.25, 701, 1, -0.25, 702, 1, -0.25, 699, 1, -0.25
*EQUATION
5
1528, 2, 1.0, 698, 2, -0.25, 701, 2, -0.25, 702, 2, -0.25, 699, 2, -0.25
*EQUATION
5
1528, 3, 1.0, 698, 3, -0.25, 701, 3, -0.25, 702, 3, -0.25, 699, 3, -0.25
*EQUATION
3
1529, 1, 1.0, 699, 1, -0.5, 702, 1, -0.5
*EQUATION
3
1529, 2, 1.0, 699, 2, -0.5, 702, 2, -0.5
*EQUATION
3
1529, 3, 1.0, 699, 3, -0.5, 702, 3, -0.5
*EQUATION
3
1530, 1, 1.0, 701, 1, -0.5, 702, 1, -0.5
*EQUATION
3
1530, 2, 1.0, 701, 2, -0.5, 702, 2, -0.5
*EQUATION
3
1530, 3, 1.0, 701, 3, -0.5, 702, 3, -0.5
*EQUATION
5
1531, 1, 1.0, 653, 1, -0.25, 655, 1, -0.25, 656, 1, -0.25, 654, 1, -0.25
*EQUATION
5
1531, 2, 1.0, 653, 2, -0.25, 655, 2, -0.25, 656, 2, -0.25, 654, 2, -0.25
*EQUATION
5
1531, 3, 1.0, 653, 3, -0.25, 655, 3, -0.25, 656, 3, -0.25, 654, 3, -0.25
*EQUATION
3
1532, 1, 1.0, 654, 1, -0.5, 656, 1, -0.5
*EQUATION
3
1532, 2, 1.0, 654, 2, -0.5, 656, 2, -0.5
*EQUATION
3
1532, 3, 1.0, 654, 3, -0.5, 656, 3, -0.5
*EQUATION
3
1533, 1, 1.0, 655, 1, -0.5, 656, 1, -0.5
*EQUATION
3
1533, 2, 1.0, 655, 2, -0.5, 656, 2, -0.5
*EQUATION
3
1533, 3, 1.0, 655, 3, -0.5, 656, 3, -0.5
*EQUATION
5
1534, 1, 1.0, 653, 1, -0.25, 701, 1, -0.25, 703, 1, -0.25, 655, 1, -0.25
*EQUATION
5
1534, 2, 1.0, 653, 2, -0.25, 701, 2, -0.25, 703, 2, -0.25, 655, 2, -0.25
*EQUATION
5
1534, 3, 1.0, 653, 3, -0.25, 701, 3, -0.25, 703, 3, -0.25, 655, 3, -0.25
*EQUATION
3
1537, 1, 1.0, 655, 1, -0.5, 703, 1, -0.5
*EQUATION
3
1537, 2, 1.0, 655, 2, -0.5, 703, 2, -0.5
*EQUATION
3
1537, 3, 1.0, 655, 3, -0.5, 703, 3, -0.5
*EQUATION
5
1538, 1, 1.0, 655, 1, -0.25, 703, 1, -0.25, 704, 1, -0.25, 656, 1, -0.25
*EQUATION
5
1538, 2, 1.0, 655, 2, -0.25, 703, 2, -0.25, 704, 2, -0.25, 656, 2, -0.25
*EQUATION
5
1538, 3, 1.0, 655, 3, -0.25, 703, 3, -0.25, 704, 3, -0.25, 656, 3, -0.25
*EQUATION
3
1539, 1, 1.0, 656, 1, -0.5, 704, 1, -0.5
*EQUATION
3
1539, 2, 1.0, 656, 2, -0.5, 704, 2, -0.5
*EQUATION
3
1539, 3, 1.0, 656, 3, -0.5, 704, 3, -0.5
*EQUATION
3
1540, 1, 1.0, 701, 1, -0.5, 703, 1, -0.5
*EQUATION
3
1540, 2, 1.0, 701, 2, -0.5, 703, 2, -0.5
*EQUATION
3
1540, 3, 1.0, 701, 3, -0.5, 703, 3, -0.5
*EQUATION
5
1541, 1, 1.0, 701, 1, -0.25, 703, 1, -0.25, 704, 1, -0.25, 702, 1, -0.25
*EQUATION
5
1541, 2, 1.0, 701, 2, -0.25, 703, 2, -0.25, 704, 2, -0.25, 702, 2, -0.25
*EQUATION
5
1541, 3, 1.0, 701, 3, -0.25, 703, 3, -0.25, 704, 3, -0.25, 702, 3, -0.25
*EQUATION
3
1542, 1, 1.0, 702, 1, -0.5, 704, 1, -0.5
*EQUATION
3
1542, 2, 1.0, 702, 2, -0.5, 704, 2, -0.5
*EQUATION
3
1542, 3, 1.0, 702, 3, -0.5, 704, 3, -0.5
*EQUATION
3
1543, 1, 1.0, 703, 1, -0.5, 704, 1, -0.5
*EQUATION
3
1543, 2, 1.0, 703, 2, -0.5, 704, 2, -0.5
*EQUATION
3
1543, 3, 1.0, 703, 3, -0.5, 704, 3, -0.5
*EQUATION
3
1544, 1, 1.0, 659, 1, -0.5, 660, 1, -0.5
*EQUATION
3
1544, 2, 1.0, 659, 2, -0.5, 660, 2, -0.5
*EQUATION
3
1544, 3, 1.0, 659, 3, -0.5, 660, 3, -0.5
*EQUATION
3
1545, 1, 1.0, 659, 1, -0.5, 662, 1, -0.5
*EQUATION
3
1545, 2, 1.0, 659, 2, -0.5, 662, 2, -0.5
*EQUATION
3
1545, 3, 1.0, 659, 3, -0.5, 662, 3, -0.5
*EQUATION
5
1546, 1, 1.0, 659, 1, -0.25, 662, 1, -0.25, 663, 1, -0.25, 660, 1, -0.25
*EQUATION
5
1546, 2, 1.0, 659, 2, -0.25, 662, 2, -0.25, 663, 2, -0.25, 660, 2, -0.25
*EQUATION
5
1546, 3, 1.0, 659, 3, -0.25, 662, 3, -0.25, 663, 3, -0.25, 660, 3, -0.25
*EQUATION
3
1547, 1, 1.0, 660, 1, -0.5, 663, 1, -0.5
*EQUATION
3
1547, 2, 1.0, 660, 2, -0.5, 663, 2, -0.5
*EQUATION
3
1547, 3, 1.0, 660, 3, -0.5, 663, 3, -0.5
*EQUATION
3
1548, 1, 1.0, 662, 1, -0.5, 663, 1, -0.5
*EQUATION
3
1548, 2, 1.0, 662, 2, -0.5, 663, 2, -0.5
*EQUATION
3
1548, 3, 1.0, 662, 3, -0.5, 663, 3, -0.5
*EQUATION
3
1549, 1, 1.0, 659, 1, -0.5, 707, 1, -0.5
*EQUATION
3
1549, 2, 1.0, 659, 2, -0.5, 707, 2, -0.5
*EQUATION
3
1549, 3, 1.0, 659, 3, -0.5, 707, 3, -0.5
*EQUATION
5
1550, 1, 1.0, 659, 1, -0.25, 707, 1, -0.25, 708, 1, -0.25, 660, 1, -0.25
*EQUATION
5
1550, 2, 1.0, 659, 2, -0.25, 707, 2, -0.25, 708, 2, -0.25, 660, 2, -0.25
*EQUATION
5
1550, 3, 1.0, 659, 3, -0.25, 707, 3, -0.25, 708, 3, -0.25, 660, 3, -0.25
*EQUATION
3
1551, 1, 1.0, 660, 1, -0.5, 708, 1, -0.5
*EQUATION
3
1551, 2, 1.0, 660, 2, -0.5, 708, 2, -0.5
*EQUATION
3
1551, 3, 1.0, 660, 3, -0.5, 708, 3, -0.5
*EQUATION
5
1552, 1, 1.0, 659, 1, -0.25, 707, 1, -0.25, 710, 1, -0.25, 662, 1, -0.25
*EQUATION
5
1552, 2, 1.0, 659, 2, -0.25, 707, 2, -0.25, 710, 2, -0.25, 662, 2, -0.25
*EQUATION
5
1552, 3, 1.0, 659, 3, -0.25, 707, 3, -0.25, 710, 3, -0.25, 662, 3, -0.25
*EQUATION
3
1555, 1, 1.0, 662, 1, -0.5, 710, 1, -0.5
*EQUATION
3
1555, 2, 1.0, 662, 2, -0.5, 710, 2, -0.5
*EQUATION
3
1555, 3, 1.0, 662, 3, -0.5, 710, 3, -0.5
*EQUATION
3
1558, 1, 1.0, 707, 1, -0.5, 708, 1, -0.5
*EQUATION
3
1558, 2, 1.0, 707, 2, -0.5, 708, 2, -0.5
*EQUATION
3
1558, 3, 1.0, 707, 3, -0.5, 708, 3, -0.5
*EQUATION
3
1559, 1, 1.0, 707, 1, -0.5, 710, 1, -0.5
*EQUATION
3
1559, 2, 1.0, 707, 2, -0.5, 710, 2, -0.5
*EQUATION
3
1559, 3, 1.0, 707, 3, -0.5, 710, 3, -0.5
*EQUATION
5
1560, 1, 1.0, 707, 1, -0.25, 710, 1, -0.25, 711, 1, -0.25, 708, 1, -0.25
*EQUATION
5
1560, 2, 1.0, 707, 2, -0.25, 710, 2, -0.25, 711, 2, -0.25, 708, 2, -0.25
*EQUATION
5
1560, 3, 1.0, 707, 3, -0.25, 710, 3, -0.25, 711, 3, -0.25, 708, 3, -0.25
*EQUATION
3
1561, 1, 1.0, 708, 1, -0.5, 711, 1, -0.5
*EQUATION
3
1561, 2, 1.0, 708, 2, -0.5, 711, 2, -0.5
*EQUATION
3
1561, 3, 1.0, 708, 3, -0.5, 711, 3, -0.5
*EQUATION
3
1562, 1, 1.0, 710, 1, -0.5, 711, 1, -0.5
*EQUATION
3
1562, 2, 1.0, 710, 2, -0.5, 711, 2, -0.5
*EQUATION
3
1562, 3, 1.0, 710, 3, -0.5, 711, 3, -0.5
*EQUATION
3
1563, 1, 1.0, 661, 1, -0.5, 662, 1, -0.5
*EQUATION
3
1563, 2, 1.0, 661, 2, -0.5, 662, 2, -0.5
*EQUATION
3
1563, 3, 1.0, 661, 3, -0.5, 662, 3, -0.5
*EQUATION
3
1564, 1, 1.0, 661, 1, -0.5, 664, 1, -0.5
*EQUATION
3
1564, 2, 1.0, 661, 2, -0.5, 664, 2, -0.5
*EQUATION
3
1564, 3, 1.0, 661, 3, -0.5, 664, 3, -0.5
*EQUATION
5
1565, 1, 1.0, 661, 1, -0.25, 664, 1, -0.25, 665, 1, -0.25, 662, 1, -0.25
*EQUATION
5
1565, 2, 1.0, 661, 2, -0.25, 664, 2, -0.25, 665, 2, -0.25, 662, 2, -0.25
*EQUATION
5
1565, 3, 1.0, 661, 3, -0.25, 664, 3, -0.25, 665, 3, -0.25, 662, 3, -0.25
*EQUATION
3
1566, 1, 1.0, 662, 1, -0.5, 665, 1, -0.5
*EQUATION
3
1566, 2, 1.0, 662, 2, -0.5, 665, 2, -0.5
*EQUATION
3
1566, 3, 1.0, 662, 3, -0.5, 665, 3, -0.5
*EQUATION
3
1567, 1, 1.0, 664, 1, -0.5, 665, 1, -0.5
*EQUATION
3
1567, 2, 1.0, 664, 2, -0.5, 665, 2, -0.5
*EQUATION
3
1567, 3, 1.0, 664, 3, -0.5, 665, 3, -0.5
*EQUATION
3
1568, 1, 1.0, 661, 1, -0.5, 709, 1, -0.5
*EQUATION
3
1568, 2, 1.0, 661, 2, -0.5, 709, 2, -0.5
*EQUATION
3
1568, 3, 1.0, 661, 3, -0.5, 709, 3, -0.5
*EQUATION
5
1569, 1, 1.0, 661, 1, -0.25, 709, 1, -0.25, 710, 1, -0.25, 662, 1, -0.25
*EQUATION
5
1569, 2, 1.0, 661, 2, -0.25, 709, 2, -0.25, 710, 2, -0.25, 662, 2, -0.25
*EQUATION
5
1569, 3, 1.0, 661, 3, -0.25, 709, 3, -0.25, 710, 3, -0.25, 662, 3, -0.25
*EQUATION
3
1576, 1, 1.0, 709, 1, -0.5, 710, 1, -0.5
*EQUATION
3
1576, 2, 1.0, 709, 2, -0.5, 710, 2, -0.5
*EQUATION
3
1576, 3, 1.0, 709, 3, -0.5, 710, 3, -0.5
*EQUATION
3
1577, 1, 1.0, 709, 1, -0.5, 712, 1, -0.5
*EQUATION
3
1577, 2, 1.0, 709, 2, -0.5, 712, 2, -0.5
*EQUATION
3
1577, 3, 1.0, 709, 3, -0.5, 712, 3, -0.5
*EQUATION
5
1578, 1, 1.0, 709, 1, -0.25, 712, 1, -0.25, 713, 1, -0.25, 710, 1, -0.25
*EQUATION
5
1578, 2, 1.0, 709, 2, -0.25, 712, 2, -0.25, 713, 2, -0.25, 710, 2, -0.25
*EQUATION
5
1578, 3, 1.0, 709, 3, -0.25, 712, 3, -0.25, 713, 3, -0.25, 710, 3, -0.25
*EQUATION
3
1579, 1, 1.0, 710, 1, -0.5, 713, 1, -0.5
*EQUATION
3
1579, 2, 1.0, 710, 2, -0.5, 713, 2, -0.5
*EQUATION
3
1579, 3, 1.0, 710, 3, -0.5, 713, 3, -0.5
*EQUATION
3
1580, 1, 1.0, 712, 1, -0.5, 713, 1, -0.5
*EQUATION
3
1580, 2, 1.0, 712, 2, -0.5, 713, 2, -0.5
*EQUATION
3
1580, 3, 1.0, 712, 3, -0.5, 713, 3, -0.5
*EQUATION
5
1581, 1, 1.0, 662, 1, -0.25, 665, 1, -0.25, 666, 1, -0.25, 663, 1, -0.25
*EQUATION
5
1581, 2, 1.0, 662, 2, -0.25, 665, 2, -0.25, 666, 2, -0.25, 663, 2, -0.25
*EQUATION
5
1581, 3, 1.0, 662, 3, -0.25, 665, 3, -0.25, 666, 3, -0.25, 663, 3, -0.25
*EQUATION
3
1582, 1, 1.0, 663, 1, -0.5, 666, 1, -0.5
*EQUATION
3
1582, 2, 1.0, 663, 2, -0.5, 666, 2, -0.5
*EQUATION
3
1582, 3, 1.0, 663, 3, -0.5, 666, 3, -0.5
*EQUATION
3
1583, 1, 1.0, 665, 1, -0.5, 666, 1, -0.5
*EQUATION
3
1583, 2, 1.0, 665, 2, -0.5, 666, 2, -0.5
*EQUATION
3
1583, 3, 1.0, 665, 3, -0.5, 666, 3, -0.5
*EQUATION
5
1588, 1, 1.0, 710, 1, -0.25, 713, 1, -0.25, 714, 1, -0.25, 711, 1, -0.25
*EQUATION
5
1588, 2, 1.0, 710, 2, -0.25, 713, 2, -0.25, 714, 2, -0.25, 711, 2, -0.25
*EQUATION
5
1588, 3, 1.0, 710, 3, -0.25, 713, 3, -0.25, 714, 3, -0.25, 711, 3, -0.25
*EQUATION
3
1589, 1, 1.0, 711, 1, -0.5, 714, 1, -0.5
*EQUATION
3
1589, 2, 1.0, 711, 2, -0.5, 714, 2, -0.5
*EQUATION
3
1589, 3, 1.0, 711, 3, -0.5, 714, 3, -0.5
*EQUATION
3
1590, 1, 1.0, 713, 1, -0.5, 714, 1, -0.5
*EQUATION
3
1590, 2, 1.0, 713, 2, -0.5, 714, 2, -0.5
*EQUATION
3
1590, 3, 1.0, 713, 3, -0.5, 714, 3, -0.5
*EQUATION
3
1591, 1, 1.0, 664, 1, -0.5, 667, 1, -0.5
*EQUATION
3
1591, 2, 1.0, 664, 2, -0.5, 667, 2, -0.5
*EQUATION
3
1591, 3, 1.0, 664, 3, -0.5, 667, 3, -0.5
*EQUATION
5
1592, 1, 1.0, 664, 1, -0.25, 667, 1, -0.25, 668, 1, -0.25, 665, 1, -0.25
*EQUATION
5
1592, 2, 1.0, 664, 2, -0.25, 667, 2, -0.25, 668, 2, -0.25, 665, 2, -0.25
*EQUATION
5
1592, 3, 1.0, 664, 3, -0.25, 667, 3, -0.25, 668, 3, -0.25, 665, 3, -0.25
*EQUATION
3
1593, 1, 1.0, 665, 1, -0.5, 668, 1, -0.5
*EQUATION
3
1593, 2, 1.0, 665, 2, -0.5, 668, 2, -0.5
*EQUATION
3
1593, 3, 1.0, 665, 3, -0.5, 668, 3, -0.5
*EQUATION
3
1594, 1, 1.0, 667, 1, -0.5, 668, 1, -0.5
*EQUATION
3
1594, 2, 1.0, 667, 2, -0.5, 668, 2, -0.5
*EQUATION
3
1594, 3, 1.0, 667, 3, -0.5, 668, 3, -0.5
*EQUATION
3
1601, 1, 1.0, 712, 1, -0.5, 715, 1, -0.5
*EQUATION
3
1601, 2, 1.0, 712, 2, -0.5, 715, 2, -0.5
*EQUATION
3
1601, 3, 1.0, 712, 3, -0.5, 715, 3, -0.5
*EQUATION
5
1602, 1, 1.0, 712, 1, -0.25, 715, 1, -0.25, 716, 1, -0.25, 713, 1, -0.25
*EQUATION
5
1602, 2, 1.0, 712, 2, -0.25, 715, 2, -0.25, 716, 2, -0.25, 713, 2, -0.25
*EQUATION
5
1602, 3, 1.0, 712, 3, -0.25, 715, 3, -0.25, 716, 3, -0.25, 713, 3, -0.25
*EQUATION
3
1603, 1, 1.0, 713, 1, -0.5, 716, 1, -0.5
*EQUATION
3
1603, 2, 1.0, 713, 2, -0.5, 716, 2, -0.5
*EQUATION
3
1603, 3, 1.0, 713, 3, -0.5, 716, 3, -0.5
*EQUATION
3
1604, 1, 1.0, 715, 1, -0.5, 716, 1, -0.5
*EQUATION
3
1604, 2, 1.0, 715, 2, -0.5, 716, 2, -0.5
*EQUATION
3
1604, 3, 1.0, 715, 3, -0.5, 716, 3, -0.5
*EQUATION
5
1605, 1, 1.0, 665, 1, -0.25, 668, 1, -0.25, 669, 1, -0.25, 666, 1, -0.25
*EQUATION
5
1605, 2, 1.0, 665, 2, -0.25, 668, 2, -0.25, 669, 2, -0.25, 666, 2, -0.25
*EQUATION
5
1605, 3, 1.0, 665, 3, -0.25, 668, 3, -0.25, 669, 3, -0.25, 666, 3, -0.25
*EQUATION
3
1606, 1, 1.0, 666, 1, -0.5, 669, 1, -0.5
*EQUATION
3
1606, 2, 1.0, 666, 2, -0.5, 669, 2, -0.5
*EQUATION
3
1606, 3, 1.0, 666, 3, -0.5, 669, 3, -0.5
*EQUATION
3
1607, 1, 1.0, 668, 1, -0.5, 669, 1, -0.5
*EQUATION
3
1607, 2, 1.0, 668, 2, -0.5, 669, 2, -0.5
*EQUATION
3
1607, 3, 1.0, 668, 3, -0.5, 669, 3, -0.5
*EQUATION
5
1612, 1, 1.0, 713, 1, -0.25, 716, 1, -0.25, 717, 1, -0.25, 714, 1, -0.25
*EQUATION
5
1612, 2, 1.0, 713, 2, -0.25, 716, 2, -0.25, 717, 2, -0.25, 714, 2, -0.25
*EQUATION
5
1612, 3, 1.0, 713, 3, -0.25, 716, 3, -0.25, 717, 3, -0.25, 714, 3, -0.25
*EQUATION
3
1613, 1, 1.0, 714, 1, -0.5, 717, 1, -0.5
*EQUATION
3
1613, 2, 1.0, 714, 2, -0.5, 717, 2, -0.5
*EQUATION
3
1613, 3, 1.0, 714, 3, -0.5, 717, 3, -0.5
*EQUATION
3
1614, 1, 1.0, 716, 1, -0.5, 717, 1, -0.5
*EQUATION
3
1614, 2, 1.0, 716, 2, -0.5, 717, 2, -0.5
*EQUATION
3
1614, 3, 1.0, 716, 3, -0.5, 717, 3, -0.5
*EQUATION
3
1615, 1, 1.0, 667, 1, -0.5, 670, 1, -0.5
*EQUATION
3
1615, 2, 1.0, 667, 2, -0.5, 670, 2, -0.5
*EQUATION
3
1615, 3, 1.0, 667, 3, -0.5, 670, 3, -0.5
*EQUATION
5
1616, 1, 1.0, 667, 1, -0.25, 670, 1, -0.25, 671, 1, -0.25, 668, 1, -0.25
*EQUATION
5
1616, 2, 1.0, 667, 2, -0.25, 670, 2, -0.25, 671, 2, -0.25, 668, 2, -0.25
*EQUATION
5
1616, 3, 1.0, 667, 3, -0.25, 670, 3, -0.25, 671, 3, -0.25, 668, 3, -0.25
*EQUATION
3
1617, 1, 1.0, 668, 1, -0.5, 671, 1, -0.5
*EQUATION
3
1617, 2, 1.0, 668, 2, -0.5, 671, 2, -0.5
*EQUATION
3
1617, 3, 1.0, 668, 3, -0.5, 671, 3, -0.5
*EQUATION
3
1618, 1, 1.0, 670, 1, -0.5, 671, 1, -0.5
*EQUATION
3
1618, 2, 1.0, 670, 2, -0.5, 671, 2, -0.5
*EQUATION
3
1618, 3, 1.0, 670, 3, -0.5, 671, 3, -0.5
*EQUATION
3
1625, 1, 1.0, 715, 1, -0.5, 718, 1, -0.5
*EQUATION
3
1625, 2, 1.0, 715, 2, -0.5, 718, 2, -0.5
*EQUATION
3
1625, 3, 1.0, 715, 3, -0.5, 718, 3, -0.5
*EQUATION
5
1626, 1, 1.0, 715, 1, -0.25, 718, 1, -0.25, 719, 1, -0.25, 716, 1, -0.25
*EQUATION
5
1626, 2, 1.0, 715, 2, -0.25, 718, 2, -0.25, 719, 2, -0.25, 716, 2, -0.25
*EQUATION
5
1626, 3, 1.0, 715, 3, -0.25, 718, 3, -0.25, 719, 3, -0.25, 716, 3, -0.25
*EQUATION
3
1627, 1, 1.0, 716, 1, -0.5, 719, 1, -0.5
*EQUATION
3
1627, 2, 1.0, 716, 2, -0.5, 719, 2, -0.5
*EQUATION
3
1627, 3, 1.0, 716, 3, -0.5, 719, 3, -0.5
*EQUATION
3
1628, 1, 1.0, 718, 1, -0.5, 719, 1, -0.5
*EQUATION
3
1628, 2, 1.0, 718, 2, -0.5, 719, 2, -0.5
*EQUATION
3
1628, 3, 1.0, 718, 3, -0.5, 719, 3, -0.5
*EQUATION
5
1629, 1, 1.0, 668, 1, -0.25, 671, 1, -0.25, 672, 1, -0.25, 669, 1, -0.25
*EQUATION
5
1629, 2, 1.0, 668, 2, -0.25, 671, 2, -0.25, 672, 2, -0.25, 669, 2, -0.25
*EQUATION
5
1629, 3, 1.0, 668, 3, -0.25, 671, 3, -0.25, 672, 3, -0.25, 669, 3, -0.25
*EQUATION
3
1630, 1, 1.0, 669, 1, -0.5, 672, 1, -0.5
*EQUATION
3
1630, 2, 1.0, 669, 2, -0.5, 672, 2, -0.5
*EQUATION
3
1630, 3, 1.0, 669, 3, -0.5, 672, 3, -0.5
*EQUATION
3
1631, 1, 1.0, 671, 1, -0.5, 672, 1, -0.5
*EQUATION
3
1631, 2, 1.0, 671, 2, -0.5, 672, 2, -0.5
*EQUATION
3
1631, 3, 1.0, 671, 3, -0.5, 672, 3, -0.5
*EQUATION
5
1636, 1, 1.0, 716, 1, -0.25, 719, 1, -0.25, 720, 1, -0.25, 717, 1, -0.25
*EQUATION
5
1636, 2, 1.0, 716, 2, -0.25, 719, 2, -0.25, 720, 2, -0.25, 717, 2, -0.25
*EQUATION
5
1636, 3, 1.0, 716, 3, -0.25, 719, 3, -0.25, 720, 3, -0.25, 717, 3, -0.25
*EQUATION
3
1637, 1, 1.0, 717, 1, -0.5, 720, 1, -0.5
*EQUATION
3
1637, 2, 1.0, 717, 2, -0.5, 720, 2, -0.5
*EQUATION
3
1637, 3, 1.0, 717, 3, -0.5, 720, 3, -0.5
*EQUATION
3
1638, 1, 1.0, 719, 1, -0.5, 720, 1, -0.5
*EQUATION
3
1638, 2, 1.0, 719, 2, -0.5, 720, 2, -0.5
*EQUATION
3
1638, 3, 1.0, 719, 3, -0.5, 720, 3, -0.5
*BOUNDARY
CLAMP, 1, 3, 0.0
*STEP
*STATIC
*CLOAD
887, 3, -454.545454545
888, 3, -454.545454545
891, 3, -454.545454545
894, 3, -454.545454545
896, 3, -454.545454545
898, 3, -454.545454545
900, 3, -454.545454545
903, 3, -454.545454545
906, 3, -454.545454545
909, 3, -454.545454545
912, 3, -454.545454545
*NODE FILE
U
*EL FILE
S, ENER
*NODE PRINT, NSET=TIP_TOP
U
*NODE PRINT, NSET=CLAMP
RF
*EL PRINT, ELSET=EALL
ELSE
*ENERGY PRINT
*END STEP
