*HEADING
T08 S-LIN hanging 8-split zz cycle 1
units: mm, N, s, MPa. Material is illustrative steel, not a coupon card.
E=210000.0 nu=0.3. load -5000.0 N on TIP_TOP.
*NODE, NSET=NALL
1, 0, -16, 0
2, 111.111111111, -15.4444444444, 6.94444444444
3, 111.111111111, 0, 6.94444444444
4, 0, 0, 0
5, 0, -16, 42
6, 111.111111111, -15.4444444444, 47.5555555556
7, 111.111111111, 0, 47.5555555556
8, 0, 0, 42
9, 0, -16, 84
10, 111.111111111, -15.4444444444, 88.1666666667
11, 111.111111111, 0, 88.1666666667
12, 0, 0, 84
13, 0, -16, 126
14, 111.111111111, -15.4444444444, 128.777777778
15, 111.111111111, 0, 128.777777778
16, 0, 0, 126
17, 0, -16, 168
18, 111.111111111, -15.4444444444, 169.388888889
19, 111.111111111, 0, 169.388888889
20, 0, 0, 168
** ... 1466 like lines cut
*ELEMENT, TYPE=C3D8, ELSET=EALL
1, 1, 2, 3, 4, 5, 6, 7, 8
2, 5, 6, 7, 8, 9, 10, 11, 12
3, 9, 10, 11, 12, 13, 14, 15, 16
4, 13, 14, 15, 16, 17, 18, 19, 20
5, 17, 18, 19, 20, 21, 22, 23, 24
6, 4, 3, 25, 26, 8, 7, 27, 28
7, 8, 7, 27, 28, 12, 11, 29, 30
8, 12, 11, 29, 30, 16, 15, 31, 32
9, 16, 15, 31, 32, 20, 19, 33, 34
10, 20, 19, 33, 34, 24, 23, 35, 36
11, 37, 38, 39, 40, 41, 42, 43, 44
12, 41, 42, 43, 44, 45, 46, 47, 48
13, 40, 39, 49, 50, 44, 43, 51, 52
14, 44, 43, 51, 52, 48, 47, 53, 54
15, 50, 49, 55, 56, 52, 51, 57, 58
16, 52, 51, 57, 58, 54, 53, 59, 60
17, 56, 55, 22, 21, 58, 57, 61, 62
18, 58, 57, 61, 62, 60, 59, 63, 64
19, 21, 22, 23, 24, 62, 61, 65, 66
20, 62, 61, 65, 66, 64, 63, 67, 68
** ... 842 like lines cut
*NSET, NSET=CLAMP
1, 4, 5, 8, 9, 12, 13, 16, 17, 20, 21, 24, 26, 28, 30, 32
34, 36, 37, 40, 41, 44, 45, 48, 50, 52, 54, 56, 58, 60, 62, 64
66, 68, 70, 72, 74, 76, 78, 80, 82, 84, 86, 88, 90, 92, 94, 96
*NSET, NSET=TIP_TOP
887, 888, 891, 894, 896, 898, 900, 903, 906, 909, 912, 1452, 1485
*MATERIAL, NAME=STEEL
*ELASTIC
210000, 0.3
*SOLID SECTION, ELSET=EALL, MATERIAL=STEEL
*EQUATION
3
913, 1, 1.0, 2, 1, -0.5, 6, 1, -0.5
*EQUATION
3
913, 2, 1.0, 2, 2, -0.5, 6, 2, -0.5
*EQUATION
3
913, 3, 1.0, 2, 3, -0.5, 6, 3, -0.5
*EQUATION
3
914, 1, 1.0, 2, 1, -0.5, 3, 1, -0.5
*EQUATION
3
914, 2, 1.0, 2, 2, -0.5, 3, 2, -0.5
*EQUATION
3
914, 3, 1.0, 2, 3, -0.5, 3, 3, -0.5
*EQUATION
5
915, 1, 1.0, 2, 1, -0.25, 3, 1, -0.25, 7, 1, -0.25, 6, 1, -0.25
*EQUATION
5
915, 2, 1.0, 2, 2, -0.25, 3, 2, -0.25, 7, 2, -0.25, 6, 2, -0.25
*EQUATION
5
915, 3, 1.0, 2, 3, -0.25, 3, 3, -0.25, 7, 3, -0.25, 6, 3, -0.25
*EQUATION
3
916, 1, 1.0, 6, 1, -0.5, 7, 1, -0.5
*EQUATION
3
916, 2, 1.0, 6, 2, -0.5, 7, 2, -0.5
*EQUATION
3
916, 3, 1.0, 6, 3, -0.5, 7, 3, -0.5
*EQUATION
3
917, 1, 1.0, 3, 1, -0.5, 7, 1, -0.5
*EQUATION
3
917, 2, 1.0, 3, 2, -0.5, 7, 2, -0.5
*EQUATION
3
917, 3, 1.0, 3, 3, -0.5, 7, 3, -0.5
*EQUATION
3
920, 1, 1.0, 6, 1, -0.5, 99, 1, -0.5
*EQUATION
3
920, 2, 1.0, 6, 2, -0.5, 99, 2, -0.5
*EQUATION
3
920, 3, 1.0, 6, 3, -0.5, 99, 3, -0.5
*EQUATION
5
923, 1, 1.0, 6, 1, -0.25, 99, 1, -0.25, 100, 1, -0.25, 7, 1, -0.25
*EQUATION
5
923, 2, 1.0, 6, 2, -0.25, 99, 2, -0.25, 100, 2, -0.25, 7, 2, -0.25
*EQUATION
5
923, 3, 1.0, 6, 3, -0.25, 99, 3, -0.25, 100, 3, -0.25, 7, 3, -0.25
*EQUATION
3
926, 1, 1.0, 7, 1, -0.5, 100, 1, -0.5
*EQUATION
3
926, 2, 1.0, 7, 2, -0.5, 100, 2, -0.5
*EQUATION
3
926, 3, 1.0, 7, 3, -0.5, 100, 3, -0.5
*EQUATION
3
927, 1, 1.0, 97, 1, -0.5, 99, 1, -0.5
*EQUATION
3
927, 2, 1.0, 97, 2, -0.5, 99, 2, -0.5
*EQUATION
3
927, 3, 1.0, 97, 3, -0.5, 99, 3, -0.5
*EQUATION
3
928, 1, 1.0, 97, 1, -0.5, 98, 1, -0.5
*EQUATION
3
928, 2, 1.0, 97, 2, -0.5, 98, 2, -0.5
*EQUATION
3
928, 3, 1.0, 97, 3, -0.5, 98, 3, -0.5
*EQUATION
5
929, 1, 1.0, 97, 1, -0.25, 98, 1, -0.25, 100, 1, -0.25, 99, 1, -0.25
*EQUATION
5
929, 2, 1.0, 97, 2, -0.25, 98, 2, -0.25, 100, 2, -0.25, 99, 2, -0.25
*EQUATION
5
929, 3, 1.0, 97, 3, -0.25, 98, 3, -0.25, 100, 3, -0.25, 99, 3, -0.25
*EQUATION
3
930, 1, 1.0, 99, 1, -0.5, 100, 1, -0.5
*EQUATION
3
930, 2, 1.0, 99, 2, -0.5, 100, 2, -0.5
*EQUATION
3
930, 3, 1.0, 99, 3, -0.5, 100, 3, -0.5
*EQUATION
3
931, 1, 1.0, 98, 1, -0.5, 100, 1, -0.5
*EQUATION
3
931, 2, 1.0, 98, 2, -0.5, 100, 2, -0.5
*EQUATION
3
931, 3, 1.0, 98, 3, -0.5, 100, 3, -0.5
*EQUATION
3
932, 1, 1.0, 3, 1, -0.5, 25, 1, -0.5
*EQUATION
3
932, 2, 1.0, 3, 2, -0.5, 25, 2, -0.5
*EQUATION
3
932, 3, 1.0, 3, 3, -0.5, 25, 3, -0.5
*EQUATION
5
933, 1, 1.0, 3, 1, -0.25, 25, 1, -0.25, 27, 1, -0.25, 7, 1, -0.25
*EQUATION
5
933, 2, 1.0, 3, 2, -0.25, 25, 2, -0.25, 27, 2, -0.25, 7, 2, -0.25
*EQUATION
5
933, 3, 1.0, 3, 3, -0.25, 25, 3, -0.25, 27, 3, -0.25, 7, 3, -0.25
*EQUATION
3
934, 1, 1.0, 7, 1, -0.5, 27, 1, -0.5
*EQUATION
3
934, 2, 1.0, 7, 2, -0.5, 27, 2, -0.5
*EQUATION
3
934, 3, 1.0, 7, 3, -0.5, 27, 3, -0.5
*EQUATION
3
935, 1, 1.0, 25, 1, -0.5, 27, 1, -0.5
*EQUATION
3
935, 2, 1.0, 25, 2, -0.5, 27, 2, -0.5
*EQUATION
3
935, 3, 1.0, 25, 3, -0.5, 27, 3, -0.5
*EQUATION
5
938, 1, 1.0, 7, 1, -0.25, 100, 1, -0.25, 110, 1, -0.25, 27, 1, -0.25
*EQUATION
5
938, 2, 1.0, 7, 2, -0.25, 100, 2, -0.25, 110, 2, -0.25, 27, 2, -0.25
*EQUATION
5
938, 3, 1.0, 7, 3, -0.25, 100, 3, -0.25, 110, 3, -0.25, 27, 3, -0.25
*EQUATION
3
941, 1, 1.0, 27, 1, -0.5, 110, 1, -0.5
*EQUATION
3
941, 2, 1.0, 27, 2, -0.5, 110, 2, -0.5
*EQUATION
3
941, 3, 1.0, 27, 3, -0.5, 110, 3, -0.5
*EQUATION
3
942, 1, 1.0, 98, 1, -0.5, 109, 1, -0.5
*EQUATION
3
942, 2, 1.0, 98, 2, -0.5, 109, 2, -0.5
*EQUATION
3
942, 3, 1.0, 98, 3, -0.5, 109, 3, -0.5
*EQUATION
5
943, 1, 1.0, 98, 1, -0.25, 109, 1, -0.25, 110, 1, -0.25, 100, 1, -0.25
*EQUATION
5
943, 2, 1.0, 98, 2, -0.25, 109, 2, -0.25, 110, 2, -0.25, 100, 2, -0.25
*EQUATION
5
943, 3, 1.0, 98, 3, -0.25, 109, 3, -0.25, 110, 3, -0.25, 100, 3, -0.25
*EQUATION
3
944, 1, 1.0, 100, 1, -0.5, 110, 1, -0.5
*EQUATION
3
944, 2, 1.0, 100, 2, -0.5, 110, 2, -0.5
*EQUATION
3
944, 3, 1.0, 100, 3, -0.5, 110, 3, -0.5
*EQUATION
3
945, 1, 1.0, 109, 1, -0.5, 110, 1, -0.5
*EQUATION
3
945, 2, 1.0, 109, 2, -0.5, 110, 2, -0.5
*EQUATION
3
945, 3, 1.0, 109, 3, -0.5, 110, 3, -0.5
*EQUATION
3
946, 1, 1.0, 385, 1, -0.5, 387, 1, -0.5
*EQUATION
3
946, 2, 1.0, 385, 2, -0.5, 387, 2, -0.5
*EQUATION
3
946, 3, 1.0, 385, 3, -0.5, 387, 3, -0.5
*EQUATION
3
947, 1, 1.0, 385, 1, -0.5, 386, 1, -0.5
*EQUATION
3
947, 2, 1.0, 385, 2, -0.5, 386, 2, -0.5
*EQUATION
3
947, 3, 1.0, 385, 3, -0.5, 386, 3, -0.5
*EQUATION
5
948, 1, 1.0, 385, 1, -0.25, 386, 1, -0.25, 388, 1, -0.25, 387, 1, -0.25
*EQUATION
5
948, 2, 1.0, 385, 2, -0.25, 386, 2, -0.25, 388, 2, -0.25, 387, 2, -0.25
*EQUATION
5
948, 3, 1.0, 385, 3, -0.25, 386, 3, -0.25, 388, 3, -0.25, 387, 3, -0.25
*EQUATION
3
949, 1, 1.0, 387, 1, -0.5, 388, 1, -0.5
*EQUATION
3
949, 2, 1.0, 387, 2, -0.5, 388, 2, -0.5
*EQUATION
3
949, 3, 1.0, 387, 3, -0.5, 388, 3, -0.5
*EQUATION
3
950, 1, 1.0, 386, 1, -0.5, 388, 1, -0.5
*EQUATION
3
950, 2, 1.0, 386, 2, -0.5, 388, 2, -0.5
*EQUATION
3
950, 3, 1.0, 386, 3, -0.5, 388, 3, -0.5
*EQUATION
3
953, 1, 1.0, 387, 1, -0.5, 435, 1, -0.5
*EQUATION
3
953, 2, 1.0, 387, 2, -0.5, 435, 2, -0.5
*EQUATION
3
953, 3, 1.0, 387, 3, -0.5, 435, 3, -0.5
*EQUATION
5
956, 1, 1.0, 387, 1, -0.25, 435, 1, -0.25, 436, 1, -0.25, 388, 1, -0.25
*EQUATION
5
956, 2, 1.0, 387, 2, -0.25, 435, 2, -0.25, 436, 2, -0.25, 388, 2, -0.25
*EQUATION
5
956, 3, 1.0, 387, 3, -0.25, 435, 3, -0.25, 436, 3, -0.25, 388, 3, -0.25
*EQUATION
3
959, 1, 1.0, 388, 1, -0.5, 436, 1, -0.5
*EQUATION
3
959, 2, 1.0, 388, 2, -0.5, 436, 2, -0.5
*EQUATION
3
959, 3, 1.0, 388, 3, -0.5, 436, 3, -0.5
*EQUATION
3
963, 1, 1.0, 435, 1, -0.5, 436, 1, -0.5
*EQUATION
3
963, 2, 1.0, 435, 2, -0.5, 436, 2, -0.5
*EQUATION
3
963, 3, 1.0, 435, 3, -0.5, 436, 3, -0.5
*EQUATION
3
965, 1, 1.0, 386, 1, -0.5, 397, 1, -0.5
*EQUATION
3
965, 2, 1.0, 386, 2, -0.5, 397, 2, -0.5
*EQUATION
3
965, 3, 1.0, 386, 3, -0.5, 397, 3, -0.5
*EQUATION
5
966, 1, 1.0, 386, 1, -0.25, 397, 1, -0.25, 398, 1, -0.25, 388, 1, -0.25
*EQUATION
5
966, 2, 1.0, 386, 2, -0.25, 397, 2, -0.25, 398, 2, -0.25, 388, 2, -0.25
*EQUATION
5
966, 3, 1.0, 386, 3, -0.25, 397, 3, -0.25, 398, 3, -0.25, 388, 3, -0.25
*EQUATION
3
967, 1, 1.0, 388, 1, -0.5, 398, 1, -0.5
*EQUATION
3
967, 2, 1.0, 388, 2, -0.5, 398, 2, -0.5
*EQUATION
3
967, 3, 1.0, 388, 3, -0.5, 398, 3, -0.5
*EQUATION
3
968, 1, 1.0, 397, 1, -0.5, 398, 1, -0.5
*EQUATION
3
968, 2, 1.0, 397, 2, -0.5, 398, 2, -0.5
*EQUATION
3
968, 3, 1.0, 397, 3, -0.5, 398, 3, -0.5
*EQUATION
5
971, 1, 1.0, 388, 1, -0.25, 436, 1, -0.25, 446, 1, -0.25, 398, 1, -0.25
*EQUATION
5
971, 2, 1.0, 388, 2, -0.25, 436, 2, -0.25, 446, 2, -0.25, 398, 2, -0.25
*EQUATION
5
971, 3, 1.0, 388, 3, -0.25, 436, 3, -0.25, 446, 3, -0.25, 398, 3, -0.25
*EQUATION
3
974, 1, 1.0, 398, 1, -0.5, 446, 1, -0.5
*EQUATION
3
974, 2, 1.0, 398, 2, -0.5, 446, 2, -0.5
*EQUATION
3
974, 3, 1.0, 398, 3, -0.5, 446, 3, -0.5
*EQUATION
3
977, 1, 1.0, 436, 1, -0.5, 446, 1, -0.5
*EQUATION
3
977, 2, 1.0, 436, 2, -0.5, 446, 2, -0.5
*EQUATION
3
977, 3, 1.0, 436, 3, -0.5, 446, 3, -0.5
*EQUATION
3
981, 1, 1.0, 435, 1, -0.5, 483, 1, -0.5
*EQUATION
3
981, 2, 1.0, 435, 2, -0.5, 483, 2, -0.5
*EQUATION
3
981, 3, 1.0, 435, 3, -0.5, 483, 3, -0.5
*EQUATION
5
984, 1, 1.0, 435, 1, -0.25, 483, 1, -0.25, 484, 1, -0.25, 436, 1, -0.25
*EQUATION
5
984, 2, 1.0, 435, 2, -0.25, 483, 2, -0.25, 484, 2, -0.25, 436, 2, -0.25
*EQUATION
5
984, 3, 1.0, 435, 3, -0.25, 483, 3, -0.25, 484, 3, -0.25, 436, 3, -0.25
*EQUATION
3
987, 1, 1.0, 436, 1, -0.5, 484, 1, -0.5
*EQUATION
3
987, 2, 1.0, 436, 2, -0.5, 484, 2, -0.5
*EQUATION
3
987, 3, 1.0, 436, 3, -0.5, 484, 3, -0.5
*EQUATION
3
991, 1, 1.0, 483, 1, -0.5, 484, 1, -0.5
*EQUATION
3
991, 2, 1.0, 483, 2, -0.5, 484, 2, -0.5
*EQUATION
3
991, 3, 1.0, 483, 3, -0.5, 484, 3, -0.5
*EQUATION
5
995, 1, 1.0, 436, 1, -0.25, 484, 1, -0.25, 494, 1, -0.25, 446, 1, -0.25
*EQUATION
5
995, 2, 1.0, 436, 2, -0.25, 484, 2, -0.25, 494, 2, -0.25, 446, 2, -0.25
*EQUATION
5
995, 3, 1.0, 436, 3, -0.25, 484, 3, -0.25, 494, 3, -0.25, 446, 3, -0.25
*EQUATION
3
998, 1, 1.0, 446, 1, -0.5, 494, 1, -0.5
*EQUATION
3
998, 2, 1.0, 446, 2, -0.5, 494, 2, -0.5
*EQUATION
3
998, 3, 1.0, 446, 3, -0.5, 494, 3, -0.5
*EQUATION
3
1001, 1, 1.0, 484, 1, -0.5, 494, 1, -0.5
*EQUATION
3
1001, 2, 1.0, 484, 2, -0.5, 494, 2, -0.5
*EQUATION
3
1001, 3, 1.0, 484, 3, -0.5, 494, 3, -0.5
*EQUATION
3
1005, 1, 1.0, 483, 1, -0.5, 531, 1, -0.5
*EQUATION
3
1005, 2, 1.0, 483, 2, -0.5, 531, 2, -0.5
*EQUATION
3
1005, 3, 1.0, 483, 3, -0.5, 531, 3, -0.5
*EQUATION
5
1008, 1, 1.0, 483, 1, -0.25, 531, 1, -0.25, 532, 1, -0.25, 484, 1, -0.25
*EQUATION
5
1008, 2, 1.0, 483, 2, -0.25, 531, 2, -0.25, 532, 2, -0.25, 484, 2, -0.25
*EQUATION
5
1008, 3, 1.0, 483, 3, -0.25, 531, 3, -0.25, 532, 3, -0.25, 484, 3, -0.25
*EQUATION
3
1011, 1, 1.0, 484, 1, -0.5, 532, 1, -0.5
*EQUATION
3
1011, 2, 1.0, 484, 2, -0.5, 532, 2, -0.5
*EQUATION
3
1011, 3, 1.0, 484, 3, -0.5, 532, 3, -0.5
*EQUATION
3
1015, 1, 1.0, 531, 1, -0.5, 532, 1, -0.5
*EQUATION
3
1015, 2, 1.0, 531, 2, -0.5, 532, 2, -0.5
*EQUATION
3
1015, 3, 1.0, 531, 3, -0.5, 532, 3, -0.5
*EQUATION
5
1019, 1, 1.0, 484, 1, -0.25, 532, 1, -0.25, 542, 1, -0.25, 494, 1, -0.25
*EQUATION
5
1019, 2, 1.0, 484, 2, -0.25, 532, 2, -0.25, 542, 2, -0.25, 494, 2, -0.25
*EQUATION
5
1019, 3, 1.0, 484, 3, -0.25, 532, 3, -0.25, 542, 3, -0.25, 494, 3, -0.25
*EQUATION
3
1022, 1, 1.0, 494, 1, -0.5, 542, 1, -0.5
*EQUATION
3
1022, 2, 1.0, 494, 2, -0.5, 542, 2, -0.5
*EQUATION
3
1022, 3, 1.0, 494, 3, -0.5, 542, 3, -0.5
*EQUATION
3
1025, 1, 1.0, 532, 1, -0.5, 542, 1, -0.5
*EQUATION
3
1025, 2, 1.0, 532, 2, -0.5, 542, 2, -0.5
*EQUATION
3
1025, 3, 1.0, 532, 3, -0.5, 542, 3, -0.5
*EQUATION
3
1029, 1, 1.0, 531, 1, -0.5, 579, 1, -0.5
*EQUATION
3
1029, 2, 1.0, 531, 2, -0.5, 579, 2, -0.5
*EQUATION
3
1029, 3, 1.0, 531, 3, -0.5, 579, 3, -0.5
*EQUATION
5
1032, 1, 1.0, 531, 1, -0.25, 579, 1, -0.25, 580, 1, -0.25, 532, 1, -0.25
*EQUATION
5
1032, 2, 1.0, 531, 2, -0.25, 579, 2, -0.25, 580, 2, -0.25, 532, 2, -0.25
*EQUATION
5
1032, 3, 1.0, 531, 3, -0.25, 579, 3, -0.25, 580, 3, -0.25, 532, 3, -0.25
*EQUATION
3
1035, 1, 1.0, 532, 1, -0.5, 580, 1, -0.5
*EQUATION
3
1035, 2, 1.0, 532, 2, -0.5, 580, 2, -0.5
*EQUATION
3
1035, 3, 1.0, 532, 3, -0.5, 580, 3, -0.5
*EQUATION
3
1039, 1, 1.0, 579, 1, -0.5, 580, 1, -0.5
*EQUATION
3
1039, 2, 1.0, 579, 2, -0.5, 580, 2, -0.5
*EQUATION
3
1039, 3, 1.0, 579, 3, -0.5, 580, 3, -0.5
*EQUATION
5
1043, 1, 1.0, 532, 1, -0.25, 580, 1, -0.25, 590, 1, -0.25, 542, 1, -0.25
*EQUATION
5
1043, 2, 1.0, 532, 2, -0.25, 580, 2, -0.25, 590, 2, -0.25, 542, 2, -0.25
*EQUATION
5
1043, 3, 1.0, 532, 3, -0.25, 580, 3, -0.25, 590, 3, -0.25, 542, 3, -0.25
*EQUATION
3
1046, 1, 1.0, 542, 1, -0.5, 590, 1, -0.5
*EQUATION
3
1046, 2, 1.0, 542, 2, -0.5, 590, 2, -0.5
*EQUATION
3
1046, 3, 1.0, 542, 3, -0.5, 590, 3, -0.5
*EQUATION
3
1049, 1, 1.0, 580, 1, -0.5, 590, 1, -0.5
*EQUATION
3
1049, 2, 1.0, 580, 2, -0.5, 590, 2, -0.5
*EQUATION
3
1049, 3, 1.0, 580, 3, -0.5, 590, 3, -0.5
*EQUATION
3
1053, 1, 1.0, 579, 1, -0.5, 627, 1, -0.5
*EQUATION
3
1053, 2, 1.0, 579, 2, -0.5, 627, 2, -0.5
*EQUATION
3
1053, 3, 1.0, 579, 3, -0.5, 627, 3, -0.5
*EQUATION
5
1056, 1, 1.0, 579, 1, -0.25, 627, 1, -0.25, 628, 1, -0.25, 580, 1, -0.25
*EQUATION
5
1056, 2, 1.0, 579, 2, -0.25, 627, 2, -0.25, 628, 2, -0.25, 580, 2, -0.25
*EQUATION
5
1056, 3, 1.0, 579, 3, -0.25, 627, 3, -0.25, 628, 3, -0.25, 580, 3, -0.25
*EQUATION
3
1059, 1, 1.0, 580, 1, -0.5, 628, 1, -0.5
*EQUATION
3
1059, 2, 1.0, 580, 2, -0.5, 628, 2, -0.5
*EQUATION
3
1059, 3, 1.0, 580, 3, -0.5, 628, 3, -0.5
*EQUATION
3
1063, 1, 1.0, 627, 1, -0.5, 628, 1, -0.5
*EQUATION
3
1063, 2, 1.0, 627, 2, -0.5, 628, 2, -0.5
*EQUATION
3
1063, 3, 1.0, 627, 3, -0.5, 628, 3, -0.5
*EQUATION
5
1067, 1, 1.0, 580, 1, -0.25, 628, 1, -0.25, 638, 1, -0.25, 590, 1, -0.25
*EQUATION
5
1067, 2, 1.0, 580, 2, -0.25, 628, 2, -0.25, 638, 2, -0.25, 590, 2, -0.25
*EQUATION
5
1067, 3, 1.0, 580, 3, -0.25, 628, 3, -0.25, 638, 3, -0.25, 590, 3, -0.25
*EQUATION
3
1070, 1, 1.0, 590, 1, -0.5, 638, 1, -0.5
*EQUATION
3
1070, 2, 1.0, 590, 2, -0.5, 638, 2, -0.5
*EQUATION
3
1070, 3, 1.0, 590, 3, -0.5, 638, 3, -0.5
*EQUATION
3
1073, 1, 1.0, 628, 1, -0.5, 638, 1, -0.5
*EQUATION
3
1073, 2, 1.0, 628, 2, -0.5, 638, 2, -0.5
*EQUATION
3
1073, 3, 1.0, 628, 3, -0.5, 638, 3, -0.5
*EQUATION
3
1077, 1, 1.0, 627, 1, -0.5, 675, 1, -0.5
*EQUATION
3
1077, 2, 1.0, 627, 2, -0.5, 675, 2, -0.5
*EQUATION
3
1077, 3, 1.0, 627, 3, -0.5, 675, 3, -0.5
*EQUATION
5
1080, 1, 1.0, 627, 1, -0.25, 675, 1, -0.25, 676, 1, -0.25, 628, 1, -0.25
*EQUATION
5
1080, 2, 1.0, 627, 2, -0.25, 675, 2, -0.25, 676, 2, -0.25, 628, 2, -0.25
*EQUATION
5
1080, 3, 1.0, 627, 3, -0.25, 675, 3, -0.25, 676, 3, -0.25, 628, 3, -0.25
*EQUATION
3
1083, 1, 1.0, 628, 1, -0.5, 676, 1, -0.5
*EQUATION
3
1083, 2, 1.0, 628, 2, -0.5, 676, 2, -0.5
*EQUATION
3
1083, 3, 1.0, 628, 3, -0.5, 676, 3, -0.5
*EQUATION
3
1087, 1, 1.0, 675, 1, -0.5, 676, 1, -0.5
*EQUATION
3
1087, 2, 1.0, 675, 2, -0.5, 676, 2, -0.5
*EQUATION
3
1087, 3, 1.0, 675, 3, -0.5, 676, 3, -0.5
*EQUATION
3
1089, 1, 1.0, 633, 1, -0.5, 635, 1, -0.5
*EQUATION
3
1089, 2, 1.0, 633, 2, -0.5, 635, 2, -0.5
*EQUATION
3
1089, 3, 1.0, 633, 3, -0.5, 635, 3, -0.5
*EQUATION
3
1090, 1, 1.0, 633, 1, -0.5, 634, 1, -0.5
*EQUATION
3
1090, 2, 1.0, 633, 2, -0.5, 634, 2, -0.5
*EQUATION
3
1090, 3, 1.0, 633, 3, -0.5, 634, 3, -0.5
*EQUATION
5
1091, 1, 1.0, 633, 1, -0.25, 634, 1, -0.25, 636, 1, -0.25, 635, 1, -0.25
*EQUATION
5
1091, 2, 1.0, 633, 2, -0.25, 634, 2, -0.25, 636, 2, -0.25, 635, 2, -0.25
*EQUATION
5
1091, 3, 1.0, 633, 3, -0.25, 634, 3, -0.25, 636, 3, -0.25, 635, 3, -0.25
*EQUATION
3
1092, 1, 1.0, 635, 1, -0.5, 636, 1, -0.5
*EQUATION
3
1092, 2, 1.0, 635, 2, -0.5, 636, 2, -0.5
*EQUATION
3
1092, 3, 1.0, 635, 3, -0.5, 636, 3, -0.5
*EQUATION
3
1093, 1, 1.0, 634, 1, -0.5, 636, 1, -0.5
*EQUATION
3
1093, 2, 1.0, 634, 2, -0.5, 636, 2, -0.5
*EQUATION
3
1093, 3, 1.0, 634, 3, -0.5, 636, 3, -0.5
*EQUATION
3
1094, 1, 1.0, 633, 1, -0.5, 681, 1, -0.5
*EQUATION
3
1094, 2, 1.0, 633, 2, -0.5, 681, 2, -0.5
*EQUATION
3
1094, 3, 1.0, 633, 3, -0.5, 681, 3, -0.5
*EQUATION
3
1096, 1, 1.0, 635, 1, -0.5, 683, 1, -0.5
*EQUATION
3
1096, 2, 1.0, 635, 2, -0.5, 683, 2, -0.5
*EQUATION
3
1096, 3, 1.0, 635, 3, -0.5, 683, 3, -0.5
*EQUATION
5
1097, 1, 1.0, 633, 1, -0.25, 681, 1, -0.25, 682, 1, -0.25, 634, 1, -0.25
*EQUATION
5
1097, 2, 1.0, 633, 2, -0.25, 681, 2, -0.25, 682, 2, -0.25, 634, 2, -0.25
*EQUATION
5
1097, 3, 1.0, 633, 3, -0.25, 681, 3, -0.25, 682, 3, -0.25, 634, 3, -0.25
*EQUATION
5
1099, 1, 1.0, 635, 1, -0.25, 683, 1, -0.25, 684, 1, -0.25, 636, 1, -0.25
*EQUATION
5
1099, 2, 1.0, 635, 2, -0.25, 683, 2, -0.25, 684, 2, -0.25, 636, 2, -0.25
*EQUATION
5
1099, 3, 1.0, 635, 3, -0.25, 683, 3, -0.25, 684, 3, -0.25, 636, 3, -0.25
*EQUATION
3
1100, 1, 1.0, 634, 1, -0.5, 682, 1, -0.5
*EQUATION
3
1100, 2, 1.0, 634, 2, -0.5, 682, 2, -0.5
*EQUATION
3
1100, 3, 1.0, 634, 3, -0.5, 682, 3, -0.5
*EQUATION
3
1102, 1, 1.0, 636, 1, -0.5, 684, 1, -0.5
*EQUATION
3
1102, 2, 1.0, 636, 2, -0.5, 684, 2, -0.5
*EQUATION
3
1102, 3, 1.0, 636, 3, -0.5, 684, 3, -0.5
*EQUATION
3
1104, 1, 1.0, 681, 1, -0.5, 682, 1, -0.5
*EQUATION
3
1104, 2, 1.0, 681, 2, -0.5, 682, 2, -0.5
*EQUATION
3
1104, 3, 1.0, 681, 3, -0.5, 682, 3, -0.5
*EQUATION
3
1106, 1, 1.0, 683, 1, -0.5, 684, 1, -0.5
*EQUATION
3
1106, 2, 1.0, 683, 2, -0.5, 684, 2, -0.5
*EQUATION
3
1106, 3, 1.0, 683, 3, -0.5, 684, 3, -0.5
*EQUATION
5
1110, 1, 1.0, 628, 1, -0.25, 676, 1, -0.25, 686, 1, -0.25, 638, 1, -0.25
*EQUATION
5
1110, 2, 1.0, 628, 2, -0.25, 676, 2, -0.25, 686, 2, -0.25, 638, 2, -0.25
*EQUATION
5
1110, 3, 1.0, 628, 3, -0.25, 676, 3, -0.25, 686, 3, -0.25, 638, 3, -0.25
*EQUATION
3
1113, 1, 1.0, 638, 1, -0.5, 686, 1, -0.5
*EQUATION
3
1113, 2, 1.0, 638, 2, -0.5, 686, 2, -0.5
*EQUATION
3
1113, 3, 1.0, 638, 3, -0.5, 686, 3, -0.5
*EQUATION
3
1116, 1, 1.0, 676, 1, -0.5, 686, 1, -0.5
*EQUATION
3
1116, 2, 1.0, 676, 2, -0.5, 686, 2, -0.5
*EQUATION
3
1116, 3, 1.0, 676, 3, -0.5, 686, 3, -0.5
*EQUATION
3
1118, 1, 1.0, 634, 1, -0.5, 641, 1, -0.5
*EQUATION
3
1118, 2, 1.0, 634, 2, -0.5, 641, 2, -0.5
*EQUATION
3
1118, 3, 1.0, 634, 3, -0.5, 641, 3, -0.5
*EQUATION
5
1119, 1, 1.0, 634, 1, -0.25, 641, 1, -0.25, 642, 1, -0.25, 636, 1, -0.25
*EQUATION
5
1119, 2, 1.0, 634, 2, -0.25, 641, 2, -0.25, 642, 2, -0.25, 636, 2, -0.25
*EQUATION
5
1119, 3, 1.0, 634, 3, -0.25, 641, 3, -0.25, 642, 3, -0.25, 636, 3, -0.25
*EQUATION
3
1120, 1, 1.0, 636, 1, -0.5, 642, 1, -0.5
*EQUATION
3
1120, 2, 1.0, 636, 2, -0.5, 642, 2, -0.5
*EQUATION
3
1120, 3, 1.0, 636, 3, -0.5, 642, 3, -0.5
*EQUATION
3
1121, 1, 1.0, 641, 1, -0.5, 642, 1, -0.5
*EQUATION
3
1121, 2, 1.0, 641, 2, -0.5, 642, 2, -0.5
*EQUATION
3
1121, 3, 1.0, 641, 3, -0.5, 642, 3, -0.5
*EQUATION
5
1122, 1, 1.0, 634, 1, -0.25, 682, 1, -0.25, 689, 1, -0.25, 641, 1, -0.25
*EQUATION
5
1122, 2, 1.0, 634, 2, -0.25, 682, 2, -0.25, 689, 2, -0.25, 641, 2, -0.25
*EQUATION
5
1122, 3, 1.0, 634, 3, -0.25, 682, 3, -0.25, 689, 3, -0.25, 641, 3, -0.25
*EQUATION
5
1124, 1, 1.0, 636, 1, -0.25, 684, 1, -0.25, 690, 1, -0.25, 642, 1, -0.25
*EQUATION
5
1124, 2, 1.0, 636, 2, -0.25, 684, 2, -0.25, 690, 2, -0.25, 642, 2, -0.25
*EQUATION
5
1124, 3, 1.0, 636, 3, -0.25, 684, 3, -0.25, 690, 3, -0.25, 642, 3, -0.25
*EQUATION
3
1125, 1, 1.0, 641, 1, -0.5, 689, 1, -0.5
*EQUATION
3
1125, 2, 1.0, 641, 2, -0.5, 689, 2, -0.5
*EQUATION
3
1125, 3, 1.0, 641, 3, -0.5, 689, 3, -0.5
*EQUATION
3
1127, 1, 1.0, 642, 1, -0.5, 690, 1, -0.5
*EQUATION
3
1127, 2, 1.0, 642, 2, -0.5, 690, 2, -0.5
*EQUATION
3
1127, 3, 1.0, 642, 3, -0.5, 690, 3, -0.5
*EQUATION
3
1128, 1, 1.0, 682, 1, -0.5, 689, 1, -0.5
*EQUATION
3
1128, 2, 1.0, 682, 2, -0.5, 689, 2, -0.5
*EQUATION
3
1128, 3, 1.0, 682, 3, -0.5, 689, 3, -0.5
*EQUATION
3
1130, 1, 1.0, 684, 1, -0.5, 690, 1, -0.5
*EQUATION
3
1130, 2, 1.0, 684, 2, -0.5, 690, 2, -0.5
*EQUATION
3
1130, 3, 1.0, 684, 3, -0.5, 690, 3, -0.5
*EQUATION
3
1134, 1, 1.0, 675, 1, -0.5, 723, 1, -0.5
*EQUATION
3
1134, 2, 1.0, 675, 2, -0.5, 723, 2, -0.5
*EQUATION
3
1134, 3, 1.0, 675, 3, -0.5, 723, 3, -0.5
*EQUATION
5
1137, 1, 1.0, 675, 1, -0.25, 723, 1, -0.25, 724, 1, -0.25, 676, 1, -0.25
*EQUATION
5
1137, 2, 1.0, 675, 2, -0.25, 723, 2, -0.25, 724, 2, -0.25, 676, 2, -0.25
*EQUATION
5
1137, 3, 1.0, 675, 3, -0.25, 723, 3, -0.25, 724, 3, -0.25, 676, 3, -0.25
*EQUATION
3
1140, 1, 1.0, 676, 1, -0.5, 724, 1, -0.5
*EQUATION
3
1140, 2, 1.0, 676, 2, -0.5, 724, 2, -0.5
*EQUATION
3
1140, 3, 1.0, 676, 3, -0.5, 724, 3, -0.5
*EQUATION
3
1144, 1, 1.0, 723, 1, -0.5, 724, 1, -0.5
*EQUATION
3
1144, 2, 1.0, 723, 2, -0.5, 724, 2, -0.5
*EQUATION
3
1144, 3, 1.0, 723, 3, -0.5, 724, 3, -0.5
*EQUATION
3
1146, 1, 1.0, 681, 1, -0.5, 729, 1, -0.5
*EQUATION
3
1146, 2, 1.0, 681, 2, -0.5, 729, 2, -0.5
*EQUATION
3
1146, 3, 1.0, 681, 3, -0.5, 729, 3, -0.5
*EQUATION
3
1148, 1, 1.0, 683, 1, -0.5, 731, 1, -0.5
*EQUATION
3
1148, 2, 1.0, 683, 2, -0.5, 731, 2, -0.5
*EQUATION
3
1148, 3, 1.0, 683, 3, -0.5, 731, 3, -0.5
*EQUATION
5
1149, 1, 1.0, 681, 1, -0.25, 729, 1, -0.25, 730, 1, -0.25, 682, 1, -0.25
*EQUATION
5
1149, 2, 1.0, 681, 2, -0.25, 729, 2, -0.25, 730, 2, -0.25, 682, 2, -0.25
*EQUATION
5
1149, 3, 1.0, 681, 3, -0.25, 729, 3, -0.25, 730, 3, -0.25, 682, 3, -0.25
*EQUATION
5
1151, 1, 1.0, 683, 1, -0.25, 731, 1, -0.25, 732, 1, -0.25, 684, 1, -0.25
*EQUATION
5
1151, 2, 1.0, 683, 2, -0.25, 731, 2, -0.25, 732, 2, -0.25, 684, 2, -0.25
*EQUATION
5
1151, 3, 1.0, 683, 3, -0.25, 731, 3, -0.25, 732, 3, -0.25, 684, 3, -0.25
*EQUATION
3
1152, 1, 1.0, 682, 1, -0.5, 730, 1, -0.5
*EQUATION
3
1152, 2, 1.0, 682, 2, -0.5, 730, 2, -0.5
*EQUATION
3
1152, 3, 1.0, 682, 3, -0.5, 730, 3, -0.5
*EQUATION
3
1154, 1, 1.0, 684, 1, -0.5, 732, 1, -0.5
*EQUATION
3
1154, 2, 1.0, 684, 2, -0.5, 732, 2, -0.5
*EQUATION
3
1154, 3, 1.0, 684, 3, -0.5, 732, 3, -0.5
*EQUATION
3
1156, 1, 1.0, 729, 1, -0.5, 730, 1, -0.5
*EQUATION
3
1156, 2, 1.0, 729, 2, -0.5, 730, 2, -0.5
*EQUATION
3
1156, 3, 1.0, 729, 3, -0.5, 730, 3, -0.5
*EQUATION
3
1158, 1, 1.0, 731, 1, -0.5, 732, 1, -0.5
*EQUATION
3
1158, 2, 1.0, 731, 2, -0.5, 732, 2, -0.5
*EQUATION
3
1158, 3, 1.0, 731, 3, -0.5, 732, 3, -0.5
*EQUATION
5
1162, 1, 1.0, 676, 1, -0.25, 724, 1, -0.25, 734, 1, -0.25, 686, 1, -0.25
*EQUATION
5
1162, 2, 1.0, 676, 2, -0.25, 724, 2, -0.25, 734, 2, -0.25, 686, 2, -0.25
*EQUATION
5
1162, 3, 1.0, 676, 3, -0.25, 724, 3, -0.25, 734, 3, -0.25, 686, 3, -0.25
*EQUATION
3
1165, 1, 1.0, 686, 1, -0.5, 734, 1, -0.5
*EQUATION
3
1165, 2, 1.0, 686, 2, -0.5, 734, 2, -0.5
*EQUATION
3
1165, 3, 1.0, 686, 3, -0.5, 734, 3, -0.5
*EQUATION
3
1168, 1, 1.0, 724, 1, -0.5, 734, 1, -0.5
*EQUATION
3
1168, 2, 1.0, 724, 2, -0.5, 734, 2, -0.5
*EQUATION
3
1168, 3, 1.0, 724, 3, -0.5, 734, 3, -0.5
*EQUATION
5
1170, 1, 1.0, 682, 1, -0.25, 730, 1, -0.25, 737, 1, -0.25, 689, 1, -0.25
*EQUATION
5
1170, 2, 1.0, 682, 2, -0.25, 730, 2, -0.25, 737, 2, -0.25, 689, 2, -0.25
*EQUATION
5
1170, 3, 1.0, 682, 3, -0.25, 730, 3, -0.25, 737, 3, -0.25, 689, 3, -0.25
*EQUATION
5
1172, 1, 1.0, 684, 1, -0.25, 732, 1, -0.25, 738, 1, -0.25, 690, 1, -0.25
*EQUATION
5
1172, 2, 1.0, 684, 2, -0.25, 732, 2, -0.25, 738, 2, -0.25, 690, 2, -0.25
*EQUATION
5
1172, 3, 1.0, 684, 3, -0.25, 732, 3, -0.25, 738, 3, -0.25, 690, 3, -0.25
*EQUATION
3
1173, 1, 1.0, 689, 1, -0.5, 737, 1, -0.5
*EQUATION
3
1173, 2, 1.0, 689, 2, -0.5, 737, 2, -0.5
*EQUATION
3
1173, 3, 1.0, 689, 3, -0.5, 737, 3, -0.5
*EQUATION
3
1175, 1, 1.0, 690, 1, -0.5, 738, 1, -0.5
*EQUATION
3
1175, 2, 1.0, 690, 2, -0.5, 738, 2, -0.5
*EQUATION
3
1175, 3, 1.0, 690, 3, -0.5, 738, 3, -0.5
*EQUATION
3
1176, 1, 1.0, 730, 1, -0.5, 737, 1, -0.5
*EQUATION
3
1176, 2, 1.0, 730, 2, -0.5, 737, 2, -0.5
*EQUATION
3
1176, 3, 1.0, 730, 3, -0.5, 737, 3, -0.5
*EQUATION
3
1178, 1, 1.0, 732, 1, -0.5, 738, 1, -0.5
*EQUATION
3
1178, 2, 1.0, 732, 2, -0.5, 738, 2, -0.5
*EQUATION
3
1178, 3, 1.0, 732, 3, -0.5, 738, 3, -0.5
*EQUATION
3
1182, 1, 1.0, 723, 1, -0.5, 771, 1, -0.5
*EQUATION
3
1182, 2, 1.0, 723, 2, -0.5, 771, 2, -0.5
*EQUATION
3
1182, 3, 1.0, 723, 3, -0.5, 771, 3, -0.5
*EQUATION
5
1185, 1, 1.0, 723, 1, -0.25, 771, 1, -0.25, 772, 1, -0.25, 724, 1, -0.25
*EQUATION
5
1185, 2, 1.0, 723, 2, -0.25, 771, 2, -0.25, 772, 2, -0.25, 724, 2, -0.25
*EQUATION
5
1185, 3, 1.0, 723, 3, -0.25, 771, 3, -0.25, 772, 3, -0.25, 724, 3, -0.25
*EQUATION
3
1188, 1, 1.0, 724, 1, -0.5, 772, 1, -0.5
*EQUATION
3
1188, 2, 1.0, 724, 2, -0.5, 772, 2, -0.5
*EQUATION
3
1188, 3, 1.0, 724, 3, -0.5, 772, 3, -0.5
*EQUATION
3
1192, 1, 1.0, 771, 1, -0.5, 772, 1, -0.5
*EQUATION
3
1192, 2, 1.0, 771, 2, -0.5, 772, 2, -0.5
*EQUATION
3
1192, 3, 1.0, 771, 3, -0.5, 772, 3, -0.5
*EQUATION
3
1194, 1, 1.0, 729, 1, -0.5, 777, 1, -0.5
*EQUATION
3
1194, 2, 1.0, 729, 2, -0.5, 777, 2, -0.5
*EQUATION
3
1194, 3, 1.0, 729, 3, -0.5, 777, 3, -0.5
*EQUATION
3
1196, 1, 1.0, 731, 1, -0.5, 779, 1, -0.5
*EQUATION
3
1196, 2, 1.0, 731, 2, -0.5, 779, 2, -0.5
*EQUATION
3
1196, 3, 1.0, 731, 3, -0.5, 779, 3, -0.5
*EQUATION
5
1197, 1, 1.0, 729, 1, -0.25, 777, 1, -0.25, 778, 1, -0.25, 730, 1, -0.25
*EQUATION
5
1197, 2, 1.0, 729, 2, -0.25, 777, 2, -0.25, 778, 2, -0.25, 730, 2, -0.25
*EQUATION
5
1197, 3, 1.0, 729, 3, -0.25, 777, 3, -0.25, 778, 3, -0.25, 730, 3, -0.25
*EQUATION
5
1199, 1, 1.0, 731, 1, -0.25, 779, 1, -0.25, 780, 1, -0.25, 732, 1, -0.25
*EQUATION
5
1199, 2, 1.0, 731, 2, -0.25, 779, 2, -0.25, 780, 2, -0.25, 732, 2, -0.25
*EQUATION
5
1199, 3, 1.0, 731, 3, -0.25, 779, 3, -0.25, 780, 3, -0.25, 732, 3, -0.25
*EQUATION
3
1200, 1, 1.0, 730, 1, -0.5, 778, 1, -0.5
*EQUATION
3
1200, 2, 1.0, 730, 2, -0.5, 778, 2, -0.5
*EQUATION
3
1200, 3, 1.0, 730, 3, -0.5, 778, 3, -0.5
*EQUATION
3
1202, 1, 1.0, 732, 1, -0.5, 780, 1, -0.5
*EQUATION
3
1202, 2, 1.0, 732, 2, -0.5, 780, 2, -0.5
*EQUATION
3
1202, 3, 1.0, 732, 3, -0.5, 780, 3, -0.5
*EQUATION
3
1204, 1, 1.0, 777, 1, -0.5, 778, 1, -0.5
*EQUATION
3
1204, 2, 1.0, 777, 2, -0.5, 778, 2, -0.5
*EQUATION
3
1204, 3, 1.0, 777, 3, -0.5, 778, 3, -0.5
*EQUATION
3
1206, 1, 1.0, 779, 1, -0.5, 780, 1, -0.5
*EQUATION
3
1206, 2, 1.0, 779, 2, -0.5, 780, 2, -0.5
*EQUATION
3
1206, 3, 1.0, 779, 3, -0.5, 780, 3, -0.5
*EQUATION
5
1210, 1, 1.0, 724, 1, -0.25, 772, 1, -0.25, 782, 1, -0.25, 734, 1, -0.25
*EQUATION
5
1210, 2, 1.0, 724, 2, -0.25, 772, 2, -0.25, 782, 2, -0.25, 734, 2, -0.25
*EQUATION
5
1210, 3, 1.0, 724, 3, -0.25, 772, 3, -0.25, 782, 3, -0.25, 734, 3, -0.25
*EQUATION
3
1213, 1, 1.0, 734, 1, -0.5, 782, 1, -0.5
*EQUATION
3
1213, 2, 1.0, 734, 2, -0.5, 782, 2, -0.5
*EQUATION
3
1213, 3, 1.0, 734, 3, -0.5, 782, 3, -0.5
*EQUATION
3
1216, 1, 1.0, 772, 1, -0.5, 782, 1, -0.5
*EQUATION
3
1216, 2, 1.0, 772, 2, -0.5, 782, 2, -0.5
*EQUATION
3
1216, 3, 1.0, 772, 3, -0.5, 782, 3, -0.5
*EQUATION
5
1218, 1, 1.0, 730, 1, -0.25, 778, 1, -0.25, 785, 1, -0.25, 737, 1, -0.25
*EQUATION
5
1218, 2, 1.0, 730, 2, -0.25, 778, 2, -0.25, 785, 2, -0.25, 737, 2, -0.25
*EQUATION
5
1218, 3, 1.0, 730, 3, -0.25, 778, 3, -0.25, 785, 3, -0.25, 737, 3, -0.25
*EQUATION
5
1220, 1, 1.0, 732, 1, -0.25, 780, 1, -0.25, 786, 1, -0.25, 738, 1, -0.25
*EQUATION
5
1220, 2, 1.0, 732, 2, -0.25, 780, 2, -0.25, 786, 2, -0.25, 738, 2, -0.25
*EQUATION
5
1220, 3, 1.0, 732, 3, -0.25, 780, 3, -0.25, 786, 3, -0.25, 738, 3, -0.25
*EQUATION
3
1221, 1, 1.0, 737, 1, -0.5, 785, 1, -0.5
*EQUATION
3
1221, 2, 1.0, 737, 2, -0.5, 785, 2, -0.5
*EQUATION
3
1221, 3, 1.0, 737, 3, -0.5, 785, 3, -0.5
*EQUATION
3
1223, 1, 1.0, 738, 1, -0.5, 786, 1, -0.5
*EQUATION
3
1223, 2, 1.0, 738, 2, -0.5, 786, 2, -0.5
*EQUATION
3
1223, 3, 1.0, 738, 3, -0.5, 786, 3, -0.5
*EQUATION
3
1224, 1, 1.0, 778, 1, -0.5, 785, 1, -0.5
*EQUATION
3
1224, 2, 1.0, 778, 2, -0.5, 785, 2, -0.5
*EQUATION
3
1224, 3, 1.0, 778, 3, -0.5, 785, 3, -0.5
*EQUATION
3
1226, 1, 1.0, 780, 1, -0.5, 786, 1, -0.5
*EQUATION
3
1226, 2, 1.0, 780, 2, -0.5, 786, 2, -0.5
*EQUATION
3
1226, 3, 1.0, 780, 3, -0.5, 786, 3, -0.5
*EQUATION
3
1242, 1, 1.0, 771, 1, -0.5, 773, 1, -0.5
*EQUATION
3
1242, 2, 1.0, 771, 2, -0.5, 773, 2, -0.5
*EQUATION
3
1242, 3, 1.0, 771, 3, -0.5, 773, 3, -0.5
*EQUATION
5
1243, 1, 1.0, 771, 1, -0.25, 772, 1, -0.25, 774, 1, -0.25, 773, 1, -0.25
*EQUATION
5
1243, 2, 1.0, 771, 2, -0.25, 772, 2, -0.25, 774, 2, -0.25, 773, 2, -0.25
*EQUATION
5
1243, 3, 1.0, 771, 3, -0.25, 772, 3, -0.25, 774, 3, -0.25, 773, 3, -0.25
*EQUATION
3
1244, 1, 1.0, 773, 1, -0.5, 774, 1, -0.5
*EQUATION
3
1244, 2, 1.0, 773, 2, -0.5, 774, 2, -0.5
*EQUATION
3
1244, 3, 1.0, 773, 3, -0.5, 774, 3, -0.5
*EQUATION
3
1245, 1, 1.0, 772, 1, -0.5, 774, 1, -0.5
*EQUATION
3
1245, 2, 1.0, 772, 2, -0.5, 774, 2, -0.5
*EQUATION
3
1245, 3, 1.0, 772, 3, -0.5, 774, 3, -0.5
*EQUATION
3
1256, 1, 1.0, 773, 1, -0.5, 775, 1, -0.5
*EQUATION
3
1256, 2, 1.0, 773, 2, -0.5, 775, 2, -0.5
*EQUATION
3
1256, 3, 1.0, 773, 3, -0.5, 775, 3, -0.5
*EQUATION
5
1257, 1, 1.0, 773, 1, -0.25, 774, 1, -0.25, 776, 1, -0.25, 775, 1, -0.25
*EQUATION
5
1257, 2, 1.0, 773, 2, -0.25, 774, 2, -0.25, 776, 2, -0.25, 775, 2, -0.25
*EQUATION
5
1257, 3, 1.0, 773, 3, -0.25, 774, 3, -0.25, 776, 3, -0.25, 775, 3, -0.25
*EQUATION
3
1258, 1, 1.0, 775, 1, -0.5, 776, 1, -0.5
*EQUATION
3
1258, 2, 1.0, 775, 2, -0.5, 776, 2, -0.5
*EQUATION
3
1258, 3, 1.0, 775, 3, -0.5, 776, 3, -0.5
*EQUATION
3
1259, 1, 1.0, 774, 1, -0.5, 776, 1, -0.5
*EQUATION
3
1259, 2, 1.0, 774, 2, -0.5, 776, 2, -0.5
*EQUATION
3
1259, 3, 1.0, 774, 3, -0.5, 776, 3, -0.5
*EQUATION
3
1261, 1, 1.0, 775, 1, -0.5, 823, 1, -0.5
*EQUATION
3
1261, 2, 1.0, 775, 2, -0.5, 823, 2, -0.5
*EQUATION
3
1261, 3, 1.0, 775, 3, -0.5, 823, 3, -0.5
*EQUATION
5
1263, 1, 1.0, 775, 1, -0.25, 823, 1, -0.25, 824, 1, -0.25, 776, 1, -0.25
*EQUATION
5
1263, 2, 1.0, 775, 2, -0.25, 823, 2, -0.25, 824, 2, -0.25, 776, 2, -0.25
*EQUATION
5
1263, 3, 1.0, 775, 3, -0.25, 823, 3, -0.25, 824, 3, -0.25, 776, 3, -0.25
*EQUATION
3
1265, 1, 1.0, 776, 1, -0.5, 824, 1, -0.5
*EQUATION
3
1265, 2, 1.0, 776, 2, -0.5, 824, 2, -0.5
*EQUATION
3
1265, 3, 1.0, 776, 3, -0.5, 824, 3, -0.5
*EQUATION
3
1268, 1, 1.0, 823, 1, -0.5, 824, 1, -0.5
*EQUATION
3
1268, 2, 1.0, 823, 2, -0.5, 824, 2, -0.5
*EQUATION
3
1268, 3, 1.0, 823, 3, -0.5, 824, 3, -0.5
*EQUATION
3
1270, 1, 1.0, 777, 1, -0.5, 825, 1, -0.5
*EQUATION
3
1270, 2, 1.0, 777, 2, -0.5, 825, 2, -0.5
*EQUATION
3
1270, 3, 1.0, 777, 3, -0.5, 825, 3, -0.5
*EQUATION
3
1272, 1, 1.0, 779, 1, -0.5, 827, 1, -0.5
*EQUATION
3
1272, 2, 1.0, 779, 2, -0.5, 827, 2, -0.5
*EQUATION
3
1272, 3, 1.0, 779, 3, -0.5, 827, 3, -0.5
*EQUATION
5
1273, 1, 1.0, 777, 1, -0.25, 825, 1, -0.25, 826, 1, -0.25, 778, 1, -0.25
*EQUATION
5
1273, 2, 1.0, 777, 2, -0.25, 825, 2, -0.25, 826, 2, -0.25, 778, 2, -0.25
*EQUATION
5
1273, 3, 1.0, 777, 3, -0.25, 825, 3, -0.25, 826, 3, -0.25, 778, 3, -0.25
*EQUATION
5
1275, 1, 1.0, 779, 1, -0.25, 827, 1, -0.25, 828, 1, -0.25, 780, 1, -0.25
*EQUATION
5
1275, 2, 1.0, 779, 2, -0.25, 827, 2, -0.25, 828, 2, -0.25, 780, 2, -0.25
*EQUATION
5
1275, 3, 1.0, 779, 3, -0.25, 827, 3, -0.25, 828, 3, -0.25, 780, 3, -0.25
*EQUATION
3
1276, 1, 1.0, 778, 1, -0.5, 826, 1, -0.5
*EQUATION
3
1276, 2, 1.0, 778, 2, -0.5, 826, 2, -0.5
*EQUATION
3
1276, 3, 1.0, 778, 3, -0.5, 826, 3, -0.5
*EQUATION
3
1278, 1, 1.0, 780, 1, -0.5, 828, 1, -0.5
*EQUATION
3
1278, 2, 1.0, 780, 2, -0.5, 828, 2, -0.5
*EQUATION
3
1278, 3, 1.0, 780, 3, -0.5, 828, 3, -0.5
*EQUATION
3
1280, 1, 1.0, 825, 1, -0.5, 826, 1, -0.5
*EQUATION
3
1280, 2, 1.0, 825, 2, -0.5, 826, 2, -0.5
*EQUATION
3
1280, 3, 1.0, 825, 3, -0.5, 826, 3, -0.5
*EQUATION
3
1282, 1, 1.0, 827, 1, -0.5, 828, 1, -0.5
*EQUATION
3
1282, 2, 1.0, 827, 2, -0.5, 828, 2, -0.5
*EQUATION
3
1282, 3, 1.0, 827, 3, -0.5, 828, 3, -0.5
*EQUATION
5
1294, 1, 1.0, 772, 1, -0.25, 782, 1, -0.25, 783, 1, -0.25, 774, 1, -0.25
*EQUATION
5
1294, 2, 1.0, 772, 2, -0.25, 782, 2, -0.25, 783, 2, -0.25, 774, 2, -0.25
*EQUATION
5
1294, 3, 1.0, 772, 3, -0.25, 782, 3, -0.25, 783, 3, -0.25, 774, 3, -0.25
*EQUATION
3
1295, 1, 1.0, 774, 1, -0.5, 783, 1, -0.5
*EQUATION
3
1295, 2, 1.0, 774, 2, -0.5, 783, 2, -0.5
*EQUATION
3
1295, 3, 1.0, 774, 3, -0.5, 783, 3, -0.5
*EQUATION
3
1296, 1, 1.0, 782, 1, -0.5, 783, 1, -0.5
*EQUATION
3
1296, 2, 1.0, 782, 2, -0.5, 783, 2, -0.5
*EQUATION
3
1296, 3, 1.0, 782, 3, -0.5, 783, 3, -0.5
*EQUATION
5
1304, 1, 1.0, 774, 1, -0.25, 783, 1, -0.25, 784, 1, -0.25, 776, 1, -0.25
*EQUATION
5
1304, 2, 1.0, 774, 2, -0.25, 783, 2, -0.25, 784, 2, -0.25, 776, 2, -0.25
*EQUATION
5
1304, 3, 1.0, 774, 3, -0.25, 783, 3, -0.25, 784, 3, -0.25, 776, 3, -0.25
*EQUATION
3
1305, 1, 1.0, 776, 1, -0.5, 784, 1, -0.5
*EQUATION
3
1305, 2, 1.0, 776, 2, -0.5, 784, 2, -0.5
*EQUATION
3
1305, 3, 1.0, 776, 3, -0.5, 784, 3, -0.5
*EQUATION
3
1306, 1, 1.0, 783, 1, -0.5, 784, 1, -0.5
*EQUATION
3
1306, 2, 1.0, 783, 2, -0.5, 784, 2, -0.5
*EQUATION
3
1306, 3, 1.0, 783, 3, -0.5, 784, 3, -0.5
*EQUATION
5
1308, 1, 1.0, 776, 1, -0.25, 824, 1, -0.25, 832, 1, -0.25, 784, 1, -0.25
*EQUATION
5
1308, 2, 1.0, 776, 2, -0.25, 824, 2, -0.25, 832, 2, -0.25, 784, 2, -0.25
*EQUATION
5
1308, 3, 1.0, 776, 3, -0.25, 824, 3, -0.25, 832, 3, -0.25, 784, 3, -0.25
*EQUATION
3
1310, 1, 1.0, 784, 1, -0.5, 832, 1, -0.5
*EQUATION
3
1310, 2, 1.0, 784, 2, -0.5, 832, 2, -0.5
*EQUATION
3
1310, 3, 1.0, 784, 3, -0.5, 832, 3, -0.5
*EQUATION
3
1312, 1, 1.0, 824, 1, -0.5, 832, 1, -0.5
*EQUATION
3
1312, 2, 1.0, 824, 2, -0.5, 832, 2, -0.5
*EQUATION
3
1312, 3, 1.0, 824, 3, -0.5, 832, 3, -0.5
*EQUATION
5
1314, 1, 1.0, 778, 1, -0.25, 826, 1, -0.25, 833, 1, -0.25, 785, 1, -0.25
*EQUATION
5
1314, 2, 1.0, 778, 2, -0.25, 826, 2, -0.25, 833, 2, -0.25, 785, 2, -0.25
*EQUATION
5
1314, 3, 1.0, 778, 3, -0.25, 826, 3, -0.25, 833, 3, -0.25, 785, 3, -0.25
*EQUATION
5
1316, 1, 1.0, 780, 1, -0.25, 828, 1, -0.25, 834, 1, -0.25, 786, 1, -0.25
*EQUATION
5
1316, 2, 1.0, 780, 2, -0.25, 828, 2, -0.25, 834, 2, -0.25, 786, 2, -0.25
*EQUATION
5
1316, 3, 1.0, 780, 3, -0.25, 828, 3, -0.25, 834, 3, -0.25, 786, 3, -0.25
*EQUATION
3
1317, 1, 1.0, 785, 1, -0.5, 833, 1, -0.5
*EQUATION
3
1317, 2, 1.0, 785, 2, -0.5, 833, 2, -0.5
*EQUATION
3
1317, 3, 1.0, 785, 3, -0.5, 833, 3, -0.5
*EQUATION
3
1319, 1, 1.0, 786, 1, -0.5, 834, 1, -0.5
*EQUATION
3
1319, 2, 1.0, 786, 2, -0.5, 834, 2, -0.5
*EQUATION
3
1319, 3, 1.0, 786, 3, -0.5, 834, 3, -0.5
*EQUATION
3
1320, 1, 1.0, 826, 1, -0.5, 833, 1, -0.5
*EQUATION
3
1320, 2, 1.0, 826, 2, -0.5, 833, 2, -0.5
*EQUATION
3
1320, 3, 1.0, 826, 3, -0.5, 833, 3, -0.5
*EQUATION
3
1322, 1, 1.0, 828, 1, -0.5, 834, 1, -0.5
*EQUATION
3
1322, 2, 1.0, 828, 2, -0.5, 834, 2, -0.5
*EQUATION
3
1322, 3, 1.0, 828, 3, -0.5, 834, 3, -0.5
*EQUATION
3
1358, 1, 1.0, 823, 1, -0.5, 825, 1, -0.5
*EQUATION
3
1358, 2, 1.0, 823, 2, -0.5, 825, 2, -0.5
*EQUATION
3
1358, 3, 1.0, 823, 3, -0.5, 825, 3, -0.5
*EQUATION
5
1359, 1, 1.0, 823, 1, -0.25, 824, 1, -0.25, 826, 1, -0.25, 825, 1, -0.25
*EQUATION
5
1359, 2, 1.0, 823, 2, -0.25, 824, 2, -0.25, 826, 2, -0.25, 825, 2, -0.25
*EQUATION
5
1359, 3, 1.0, 823, 3, -0.25, 824, 3, -0.25, 826, 3, -0.25, 825, 3, -0.25
*EQUATION
3
1360, 1, 1.0, 824, 1, -0.5, 826, 1, -0.5
*EQUATION
3
1360, 2, 1.0, 824, 2, -0.5, 826, 2, -0.5
*EQUATION
3
1360, 3, 1.0, 824, 3, -0.5, 826, 3, -0.5
*EQUATION
3
1372, 1, 1.0, 827, 1, -0.5, 875, 1, -0.5
*EQUATION
3
1372, 2, 1.0, 827, 2, -0.5, 875, 2, -0.5
*EQUATION
3
1372, 3, 1.0, 827, 3, -0.5, 875, 3, -0.5
*EQUATION
5
1374, 1, 1.0, 827, 1, -0.25, 875, 1, -0.25, 876, 1, -0.25, 828, 1, -0.25
*EQUATION
5
1374, 2, 1.0, 827, 2, -0.25, 875, 2, -0.25, 876, 2, -0.25, 828, 2, -0.25
*EQUATION
5
1374, 3, 1.0, 827, 3, -0.25, 875, 3, -0.25, 876, 3, -0.25, 828, 3, -0.25
*EQUATION
3
1376, 1, 1.0, 828, 1, -0.5, 876, 1, -0.5
*EQUATION
3
1376, 2, 1.0, 828, 2, -0.5, 876, 2, -0.5
*EQUATION
3
1376, 3, 1.0, 828, 3, -0.5, 876, 3, -0.5
*EQUATION
3
1379, 1, 1.0, 875, 1, -0.5, 876, 1, -0.5
*EQUATION
3
1379, 2, 1.0, 875, 2, -0.5, 876, 2, -0.5
*EQUATION
3
1379, 3, 1.0, 875, 3, -0.5, 876, 3, -0.5
*EQUATION
5
1405, 1, 1.0, 824, 1, -0.25, 832, 1, -0.25, 833, 1, -0.25, 826, 1, -0.25
*EQUATION
5
1405, 2, 1.0, 824, 2, -0.25, 832, 2, -0.25, 833, 2, -0.25, 826, 2, -0.25
*EQUATION
5
1405, 3, 1.0, 824, 3, -0.25, 832, 3, -0.25, 833, 3, -0.25, 826, 3, -0.25
*EQUATION
3
1406, 1, 1.0, 832, 1, -0.5, 833, 1, -0.5
*EQUATION
3
1406, 2, 1.0, 832, 2, -0.5, 833, 2, -0.5
*EQUATION
3
1406, 3, 1.0, 832, 3, -0.5, 833, 3, -0.5
*EQUATION
5
1415, 1, 1.0, 828, 1, -0.25, 876, 1, -0.25, 882, 1, -0.25, 834, 1, -0.25
*EQUATION
5
1415, 2, 1.0, 828, 2, -0.25, 876, 2, -0.25, 882, 2, -0.25, 834, 2, -0.25
*EQUATION
5
1415, 3, 1.0, 828, 3, -0.25, 876, 3, -0.25, 882, 3, -0.25, 834, 3, -0.25
*EQUATION
3
1417, 1, 1.0, 834, 1, -0.5, 882, 1, -0.5
*EQUATION
3
1417, 2, 1.0, 834, 2, -0.5, 882, 2, -0.5
*EQUATION
3
1417, 3, 1.0, 834, 3, -0.5, 882, 3, -0.5
*EQUATION
3
1419, 1, 1.0, 876, 1, -0.5, 882, 1, -0.5
*EQUATION
3
1419, 2, 1.0, 876, 2, -0.5, 882, 2, -0.5
*EQUATION
3
1419, 3, 1.0, 876, 3, -0.5, 882, 3, -0.5
*EQUATION
3
1421, 1, 1.0, 835, 1, -0.5, 837, 1, -0.5
*EQUATION
3
1421, 2, 1.0, 835, 2, -0.5, 837, 2, -0.5
*EQUATION
3
1421, 3, 1.0, 835, 3, -0.5, 837, 3, -0.5
*EQUATION
3
1422, 1, 1.0, 835, 1, -0.5, 836, 1, -0.5
*EQUATION
3
1422, 2, 1.0, 835, 2, -0.5, 836, 2, -0.5
*EQUATION
3
1422, 3, 1.0, 835, 3, -0.5, 836, 3, -0.5
*EQUATION
5
1423, 1, 1.0, 835, 1, -0.25, 836, 1, -0.25, 838, 1, -0.25, 837, 1, -0.25
*EQUATION
5
1423, 2, 1.0, 835, 2, -0.25, 836, 2, -0.25, 838, 2, -0.25, 837, 2, -0.25
*EQUATION
5
1423, 3, 1.0, 835, 3, -0.25, 836, 3, -0.25, 838, 3, -0.25, 837, 3, -0.25
*EQUATION
3
1424, 1, 1.0, 837, 1, -0.5, 838, 1, -0.5
*EQUATION
3
1424, 2, 1.0, 837, 2, -0.5, 838, 2, -0.5
*EQUATION
3
1424, 3, 1.0, 837, 3, -0.5, 838, 3, -0.5
*EQUATION
3
1425, 1, 1.0, 836, 1, -0.5, 838, 1, -0.5
*EQUATION
3
1425, 2, 1.0, 836, 2, -0.5, 838, 2, -0.5
*EQUATION
3
1425, 3, 1.0, 836, 3, -0.5, 838, 3, -0.5
*EQUATION
3
1432, 1, 1.0, 836, 1, -0.5, 884, 1, -0.5
*EQUATION
3
1432, 2, 1.0, 836, 2, -0.5, 884, 2, -0.5
*EQUATION
3
1432, 3, 1.0, 836, 3, -0.5, 884, 3, -0.5
*EQUATION
5
1433, 1, 1.0, 836, 1, -0.25, 884, 1, -0.25, 886, 1, -0.25, 838, 1, -0.25
*EQUATION
5
1433, 2, 1.0, 836, 2, -0.25, 884, 2, -0.25, 886, 2, -0.25, 838, 2, -0.25
*EQUATION
5
1433, 3, 1.0, 836, 3, -0.25, 884, 3, -0.25, 886, 3, -0.25, 838, 3, -0.25
*EQUATION
3
1434, 1, 1.0, 838, 1, -0.5, 886, 1, -0.5
*EQUATION
3
1434, 2, 1.0, 838, 2, -0.5, 886, 2, -0.5
*EQUATION
3
1434, 3, 1.0, 838, 3, -0.5, 886, 3, -0.5
*EQUATION
3
1439, 1, 1.0, 884, 1, -0.5, 886, 1, -0.5
*EQUATION
3
1439, 2, 1.0, 884, 2, -0.5, 886, 2, -0.5
*EQUATION
3
1439, 3, 1.0, 884, 3, -0.5, 886, 3, -0.5
*EQUATION
3
1440, 1, 1.0, 837, 1, -0.5, 839, 1, -0.5
*EQUATION
3
1440, 2, 1.0, 837, 2, -0.5, 839, 2, -0.5
*EQUATION
3
1440, 3, 1.0, 837, 3, -0.5, 839, 3, -0.5
*EQUATION
5
1441, 1, 1.0, 837, 1, -0.25, 838, 1, -0.25, 840, 1, -0.25, 839, 1, -0.25
*EQUATION
5
1441, 2, 1.0, 837, 2, -0.25, 838, 2, -0.25, 840, 2, -0.25, 839, 2, -0.25
*EQUATION
5
1441, 3, 1.0, 837, 3, -0.25, 838, 3, -0.25, 840, 3, -0.25, 839, 3, -0.25
*EQUATION
3
1442, 1, 1.0, 839, 1, -0.5, 840, 1, -0.5
*EQUATION
3
1442, 2, 1.0, 839, 2, -0.5, 840, 2, -0.5
*EQUATION
3
1442, 3, 1.0, 839, 3, -0.5, 840, 3, -0.5
*EQUATION
3
1443, 1, 1.0, 838, 1, -0.5, 840, 1, -0.5
*EQUATION
3
1443, 2, 1.0, 838, 2, -0.5, 840, 2, -0.5
*EQUATION
3
1443, 3, 1.0, 838, 3, -0.5, 840, 3, -0.5
*EQUATION
5
1448, 1, 1.0, 838, 1, -0.25, 886, 1, -0.25, 888, 1, -0.25, 840, 1, -0.25
*EQUATION
5
1448, 2, 1.0, 838, 2, -0.25, 886, 2, -0.25, 888, 2, -0.25, 840, 2, -0.25
*EQUATION
5
1448, 3, 1.0, 838, 3, -0.25, 886, 3, -0.25, 888, 3, -0.25, 840, 3, -0.25
*EQUATION
3
1449, 1, 1.0, 840, 1, -0.5, 888, 1, -0.5
*EQUATION
3
1449, 2, 1.0, 840, 2, -0.5, 888, 2, -0.5
*EQUATION
3
1449, 3, 1.0, 840, 3, -0.5, 888, 3, -0.5
*EQUATION
3
1453, 1, 1.0, 886, 1, -0.5, 888, 1, -0.5
*EQUATION
3
1453, 2, 1.0, 886, 2, -0.5, 888, 2, -0.5
*EQUATION
3
1453, 3, 1.0, 886, 3, -0.5, 888, 3, -0.5
*EQUATION
3
1454, 1, 1.0, 859, 1, -0.5, 860, 1, -0.5
*EQUATION
3
1454, 2, 1.0, 859, 2, -0.5, 860, 2, -0.5
*EQUATION
3
1454, 3, 1.0, 859, 3, -0.5, 860, 3, -0.5
*EQUATION
3
1455, 1, 1.0, 859, 1, -0.5, 862, 1, -0.5
*EQUATION
3
1455, 2, 1.0, 859, 2, -0.5, 862, 2, -0.5
*EQUATION
3
1455, 3, 1.0, 859, 3, -0.5, 862, 3, -0.5
*EQUATION
5
1456, 1, 1.0, 859, 1, -0.25, 862, 1, -0.25, 863, 1, -0.25, 860, 1, -0.25
*EQUATION
5
1456, 2, 1.0, 859, 2, -0.25, 862, 2, -0.25, 863, 2, -0.25, 860, 2, -0.25
*EQUATION
5
1456, 3, 1.0, 859, 3, -0.25, 862, 3, -0.25, 863, 3, -0.25, 860, 3, -0.25
*EQUATION
3
1457, 1, 1.0, 860, 1, -0.5, 863, 1, -0.5
*EQUATION
3
1457, 2, 1.0, 860, 2, -0.5, 863, 2, -0.5
*EQUATION
3
1457, 3, 1.0, 860, 3, -0.5, 863, 3, -0.5
*EQUATION
3
1458, 1, 1.0, 862, 1, -0.5, 863, 1, -0.5
*EQUATION
3
1458, 2, 1.0, 862, 2, -0.5, 863, 2, -0.5
*EQUATION
3
1458, 3, 1.0, 862, 3, -0.5, 863, 3, -0.5
*EQUATION
3
1459, 1, 1.0, 859, 1, -0.5, 907, 1, -0.5
*EQUATION
3
1459, 2, 1.0, 859, 2, -0.5, 907, 2, -0.5
*EQUATION
3
1459, 3, 1.0, 859, 3, -0.5, 907, 3, -0.5
*EQUATION
5
1460, 1, 1.0, 859, 1, -0.25, 907, 1, -0.25, 908, 1, -0.25, 860, 1, -0.25
*EQUATION
5
1460, 2, 1.0, 859, 2, -0.25, 907, 2, -0.25, 908, 2, -0.25, 860, 2, -0.25
*EQUATION
5
1460, 3, 1.0, 859, 3, -0.25, 907, 3, -0.25, 908, 3, -0.25, 860, 3, -0.25
*EQUATION
3
1461, 1, 1.0, 860, 1, -0.5, 908, 1, -0.5
*EQUATION
3
1461, 2, 1.0, 860, 2, -0.5, 908, 2, -0.5
*EQUATION
3
1461, 3, 1.0, 860, 3, -0.5, 908, 3, -0.5
*EQUATION
3
1468, 1, 1.0, 907, 1, -0.5, 908, 1, -0.5
*EQUATION
3
1468, 2, 1.0, 907, 2, -0.5, 908, 2, -0.5
*EQUATION
3
1468, 3, 1.0, 907, 3, -0.5, 908, 3, -0.5
*EQUATION
3
1473, 1, 1.0, 860, 1, -0.5, 861, 1, -0.5
*EQUATION
3
1473, 2, 1.0, 860, 2, -0.5, 861, 2, -0.5
*EQUATION
3
1473, 3, 1.0, 860, 3, -0.5, 861, 3, -0.5
*EQUATION
5
1474, 1, 1.0, 860, 1, -0.25, 863, 1, -0.25, 864, 1, -0.25, 861, 1, -0.25
*EQUATION
5
1474, 2, 1.0, 860, 2, -0.25, 863, 2, -0.25, 864, 2, -0.25, 861, 2, -0.25
*EQUATION
5
1474, 3, 1.0, 860, 3, -0.25, 863, 3, -0.25, 864, 3, -0.25, 861, 3, -0.25
*EQUATION
3
1475, 1, 1.0, 861, 1, -0.5, 864, 1, -0.5
*EQUATION
3
1475, 2, 1.0, 861, 2, -0.5, 864, 2, -0.5
*EQUATION
3
1475, 3, 1.0, 861, 3, -0.5, 864, 3, -0.5
*EQUATION
3
1476, 1, 1.0, 863, 1, -0.5, 864, 1, -0.5
*EQUATION
3
1476, 2, 1.0, 863, 2, -0.5, 864, 2, -0.5
*EQUATION
3
1476, 3, 1.0, 863, 3, -0.5, 864, 3, -0.5
*EQUATION
5
1477, 1, 1.0, 860, 1, -0.25, 908, 1, -0.25, 909, 1, -0.25, 861, 1, -0.25
*EQUATION
5
1477, 2, 1.0, 860, 2, -0.25, 908, 2, -0.25, 909, 2, -0.25, 861, 2, -0.25
*EQUATION
5
1477, 3, 1.0, 860, 3, -0.25, 908, 3, -0.25, 909, 3, -0.25, 861, 3, -0.25
*EQUATION
3
1478, 1, 1.0, 861, 1, -0.5, 909, 1, -0.5
*EQUATION
3
1478, 2, 1.0, 861, 2, -0.5, 909, 2, -0.5
*EQUATION
3
1478, 3, 1.0, 861, 3, -0.5, 909, 3, -0.5
*EQUATION
3
1483, 1, 1.0, 908, 1, -0.5, 909, 1, -0.5
*EQUATION
3
1483, 2, 1.0, 908, 2, -0.5, 909, 2, -0.5
*EQUATION
3
1483, 3, 1.0, 908, 3, -0.5, 909, 3, -0.5
*BOUNDARY
CLAMP, 1, 3, 0.0
*STEP
*STATIC
*CLOAD
887, 3, -384.615384615
888, 3, -384.615384615
891, 3, -384.615384615
894, 3, -384.615384615
896, 3, -384.615384615
898, 3, -384.615384615
900, 3, -384.615384615
903, 3, -384.615384615
906, 3, -384.615384615
909, 3, -384.615384615
912, 3, -384.615384615
1452, 3, -384.615384615
1485, 3, -384.615384615
*NODE FILE
U
*EL FILE
S, ENER
*NODE PRINT, NSET=TIP_TOP
U
*NODE PRINT, NSET=CLAMP
RF
*EL PRINT, ELSET=EALL
ELSE
*ENERGY PRINT
*END STEP
