*HEADING
T07 S-LIN hanging 8-split zz cycle 2
units: mm, N, s, MPa. Material is illustrative steel, not a coupon card.
E=210000.0 nu=0.3. load -5000.0 N on TIP_TOP.
*NODE, NSET=NALL
1, 0, -18, 0
2, 111.111111111, -17.3333333333, 0
3, 111.111111111, 0, 0
4, 0, 0, 0
5, 0, -18, 28
6, 111.111111111, -17.3333333333, 28
7, 111.111111111, 0, 28
8, 0, 0, 28
9, 0, -18, 56
10, 111.111111111, -17.3333333333, 56
11, 111.111111111, 0, 56
12, 0, 0, 56
13, 0, -18, 84
14, 111.111111111, -17.3333333333, 84
15, 111.111111111, 0, 84
16, 0, 0, 84
17, 0, -18, 112
18, 111.111111111, -17.3333333333, 112
19, 111.111111111, 0, 112
20, 0, 0, 112
** ... 2156 like lines cut
*ELEMENT, TYPE=C3D8, ELSET=EALL
1, 1, 1524, 1527, 1520, 1519, 1525, 1528, 1521
2, 1519, 1525, 1528, 1521, 5, 1526, 1529, 1522
3, 1520, 1527, 1530, 4, 1521, 1528, 1531, 1523
4, 1521, 1528, 1531, 1523, 1522, 1529, 1532, 8
5, 1524, 2, 914, 1527, 1525, 913, 915, 1528
6, 1525, 913, 915, 1528, 1526, 6, 916, 1529
7, 1527, 914, 3, 1530, 1528, 915, 917, 1531
8, 1528, 915, 917, 1531, 1529, 916, 7, 1532
9, 5, 6, 7, 8, 9, 10, 11, 12
10, 9, 10, 11, 12, 13, 14, 15, 16
11, 13, 14, 15, 16, 17, 18, 19, 20
12, 17, 18, 19, 20, 21, 22, 23, 24
13, 4, 1530, 1537, 1533, 1523, 1531, 1538, 1534
14, 1523, 1531, 1538, 1534, 8, 1532, 1539, 1535
15, 1533, 1537, 1540, 26, 1534, 1538, 1541, 1536
16, 1534, 1538, 1541, 1536, 1535, 1539, 1542, 28
17, 1530, 3, 932, 1537, 1531, 917, 933, 1538
18, 1531, 917, 933, 1538, 1532, 7, 934, 1539
19, 1537, 932, 25, 1540, 1538, 933, 935, 1541
20, 1538, 933, 935, 1541, 1539, 934, 27, 1542
** ... 1402 like lines cut
*NSET, NSET=CLAMP
1, 4, 5, 8, 9, 12, 13, 16, 17, 20, 21, 24, 26, 28, 30, 32
34, 36, 37, 40, 41, 44, 45, 48, 50, 52, 54, 56, 58, 60, 62, 64
66, 68, 70, 72, 74, 76, 78, 80, 82, 84, 86, 88, 90, 92, 94, 96
1519, 1520, 1521, 1522, 1523, 1533, 1534, 1535, 1536
*NSET, NSET=TIP_TOP
887, 888, 891, 894, 896, 898, 900, 903, 906, 909, 912, 1503, 1517
*MATERIAL, NAME=STEEL
*ELASTIC
210000, 0.3
*SOLID SECTION, ELSET=EALL, MATERIAL=STEEL
*EQUATION
3
916, 1, 1.0, 6, 1, -0.5, 7, 1, -0.5
*EQUATION
3
916, 2, 1.0, 6, 2, -0.5, 7, 2, -0.5
*EQUATION
3
916, 3, 1.0, 6, 3, -0.5, 7, 3, -0.5
*EQUATION
3
930, 1, 1.0, 99, 1, -0.5, 100, 1, -0.5
*EQUATION
3
930, 2, 1.0, 99, 2, -0.5, 100, 2, -0.5
*EQUATION
3
930, 3, 1.0, 99, 3, -0.5, 100, 3, -0.5
*EQUATION
3
934, 1, 1.0, 7, 1, -0.5, 27, 1, -0.5
*EQUATION
3
934, 2, 1.0, 7, 2, -0.5, 27, 2, -0.5
*EQUATION
3
934, 3, 1.0, 7, 3, -0.5, 27, 3, -0.5
*EQUATION
3
944, 1, 1.0, 100, 1, -0.5, 110, 1, -0.5
*EQUATION
3
944, 2, 1.0, 100, 2, -0.5, 110, 2, -0.5
*EQUATION
3
944, 3, 1.0, 100, 3, -0.5, 110, 3, -0.5
*EQUATION
3
949, 1, 1.0, 587, 1, -0.5, 588, 1, -0.5
*EQUATION
3
949, 2, 1.0, 587, 2, -0.5, 588, 2, -0.5
*EQUATION
3
949, 3, 1.0, 587, 3, -0.5, 588, 3, -0.5
*EQUATION
3
953, 1, 1.0, 587, 1, -0.5, 635, 1, -0.5
*EQUATION
3
953, 2, 1.0, 587, 2, -0.5, 635, 2, -0.5
*EQUATION
3
953, 3, 1.0, 587, 3, -0.5, 635, 3, -0.5
*EQUATION
5
956, 1, 1.0, 587, 1, -0.25, 635, 1, -0.25, 636, 1, -0.25, 588, 1, -0.25
*EQUATION
5
956, 2, 1.0, 587, 2, -0.25, 635, 2, -0.25, 636, 2, -0.25, 588, 2, -0.25
*EQUATION
5
956, 3, 1.0, 587, 3, -0.25, 635, 3, -0.25, 636, 3, -0.25, 588, 3, -0.25
*EQUATION
3
959, 1, 1.0, 588, 1, -0.5, 636, 1, -0.5
*EQUATION
3
959, 2, 1.0, 588, 2, -0.5, 636, 2, -0.5
*EQUATION
3
959, 3, 1.0, 588, 3, -0.5, 636, 3, -0.5
*EQUATION
3
963, 1, 1.0, 635, 1, -0.5, 636, 1, -0.5
*EQUATION
3
963, 2, 1.0, 635, 2, -0.5, 636, 2, -0.5
*EQUATION
3
963, 3, 1.0, 635, 3, -0.5, 636, 3, -0.5
*EQUATION
3
967, 1, 1.0, 588, 1, -0.5, 594, 1, -0.5
*EQUATION
3
967, 2, 1.0, 588, 2, -0.5, 594, 2, -0.5
*EQUATION
3
967, 3, 1.0, 588, 3, -0.5, 594, 3, -0.5
*EQUATION
5
971, 1, 1.0, 588, 1, -0.25, 636, 1, -0.25, 642, 1, -0.25, 594, 1, -0.25
*EQUATION
5
971, 2, 1.0, 588, 2, -0.25, 636, 2, -0.25, 642, 2, -0.25, 594, 2, -0.25
*EQUATION
5
971, 3, 1.0, 588, 3, -0.25, 636, 3, -0.25, 642, 3, -0.25, 594, 3, -0.25
*EQUATION
3
974, 1, 1.0, 594, 1, -0.5, 642, 1, -0.5
*EQUATION
3
974, 2, 1.0, 594, 2, -0.5, 642, 2, -0.5
*EQUATION
3
974, 3, 1.0, 594, 3, -0.5, 642, 3, -0.5
*EQUATION
3
977, 1, 1.0, 636, 1, -0.5, 642, 1, -0.5
*EQUATION
3
977, 2, 1.0, 636, 2, -0.5, 642, 2, -0.5
*EQUATION
3
977, 3, 1.0, 636, 3, -0.5, 642, 3, -0.5
*EQUATION
3
1000, 1, 1.0, 635, 1, -0.5, 683, 1, -0.5
*EQUATION
3
1000, 2, 1.0, 635, 2, -0.5, 683, 2, -0.5
*EQUATION
3
1000, 3, 1.0, 635, 3, -0.5, 683, 3, -0.5
*EQUATION
3
1050, 1, 1.0, 642, 1, -0.5, 690, 1, -0.5
*EQUATION
3
1050, 2, 1.0, 642, 2, -0.5, 690, 2, -0.5
*EQUATION
3
1050, 3, 1.0, 642, 3, -0.5, 690, 3, -0.5
*EQUATION
3
1110, 1, 1.0, 683, 1, -0.5, 731, 1, -0.5
*EQUATION
3
1110, 2, 1.0, 683, 2, -0.5, 731, 2, -0.5
*EQUATION
3
1110, 3, 1.0, 683, 3, -0.5, 731, 3, -0.5
*EQUATION
3
1157, 1, 1.0, 690, 1, -0.5, 738, 1, -0.5
*EQUATION
3
1157, 2, 1.0, 690, 2, -0.5, 738, 2, -0.5
*EQUATION
3
1157, 3, 1.0, 690, 3, -0.5, 738, 3, -0.5
*EQUATION
3
1206, 1, 1.0, 731, 1, -0.5, 779, 1, -0.5
*EQUATION
3
1206, 2, 1.0, 731, 2, -0.5, 779, 2, -0.5
*EQUATION
3
1206, 3, 1.0, 731, 3, -0.5, 779, 3, -0.5
*EQUATION
3
1249, 1, 1.0, 738, 1, -0.5, 786, 1, -0.5
*EQUATION
3
1249, 2, 1.0, 738, 2, -0.5, 786, 2, -0.5
*EQUATION
3
1249, 3, 1.0, 738, 3, -0.5, 786, 3, -0.5
*EQUATION
3
1298, 1, 1.0, 779, 1, -0.5, 827, 1, -0.5
*EQUATION
3
1298, 2, 1.0, 779, 2, -0.5, 827, 2, -0.5
*EQUATION
3
1298, 3, 1.0, 779, 3, -0.5, 827, 3, -0.5
*EQUATION
3
1341, 1, 1.0, 786, 1, -0.5, 834, 1, -0.5
*EQUATION
3
1341, 2, 1.0, 786, 2, -0.5, 834, 2, -0.5
*EQUATION
3
1341, 3, 1.0, 786, 3, -0.5, 834, 3, -0.5
*EQUATION
3
1345, 1, 1.0, 779, 1, -0.5, 799, 1, -0.5
*EQUATION
3
1345, 2, 1.0, 779, 2, -0.5, 799, 2, -0.5
*EQUATION
3
1345, 3, 1.0, 779, 3, -0.5, 799, 3, -0.5
*EQUATION
5
1349, 1, 1.0, 779, 1, -0.25, 827, 1, -0.25, 847, 1, -0.25, 799, 1, -0.25
*EQUATION
5
1349, 2, 1.0, 779, 2, -0.25, 827, 2, -0.25, 847, 2, -0.25, 799, 2, -0.25
*EQUATION
5
1349, 3, 1.0, 779, 3, -0.25, 827, 3, -0.25, 847, 3, -0.25, 799, 3, -0.25
*EQUATION
3
1350, 1, 1.0, 799, 1, -0.5, 847, 1, -0.5
*EQUATION
3
1350, 2, 1.0, 799, 2, -0.5, 847, 2, -0.5
*EQUATION
3
1350, 3, 1.0, 799, 3, -0.5, 847, 3, -0.5
*EQUATION
3
1355, 1, 1.0, 827, 1, -0.5, 847, 1, -0.5
*EQUATION
3
1355, 2, 1.0, 827, 2, -0.5, 847, 2, -0.5
*EQUATION
3
1355, 3, 1.0, 827, 3, -0.5, 847, 3, -0.5
*EQUATION
3
1359, 1, 1.0, 799, 1, -0.5, 800, 1, -0.5
*EQUATION
3
1359, 2, 1.0, 799, 2, -0.5, 800, 2, -0.5
*EQUATION
3
1359, 3, 1.0, 799, 3, -0.5, 800, 3, -0.5
*EQUATION
5
1363, 1, 1.0, 799, 1, -0.25, 847, 1, -0.25, 848, 1, -0.25, 800, 1, -0.25
*EQUATION
5
1363, 2, 1.0, 799, 2, -0.25, 847, 2, -0.25, 848, 2, -0.25, 800, 2, -0.25
*EQUATION
5
1363, 3, 1.0, 799, 3, -0.25, 847, 3, -0.25, 848, 3, -0.25, 800, 3, -0.25
*EQUATION
3
1364, 1, 1.0, 800, 1, -0.5, 848, 1, -0.5
*EQUATION
3
1364, 2, 1.0, 800, 2, -0.5, 848, 2, -0.5
*EQUATION
3
1364, 3, 1.0, 800, 3, -0.5, 848, 3, -0.5
*EQUATION
3
1369, 1, 1.0, 847, 1, -0.5, 848, 1, -0.5
*EQUATION
3
1369, 2, 1.0, 847, 2, -0.5, 848, 2, -0.5
*EQUATION
3
1369, 3, 1.0, 847, 3, -0.5, 848, 3, -0.5
*EQUATION
3
1375, 1, 1.0, 786, 1, -0.5, 803, 1, -0.5
*EQUATION
3
1375, 2, 1.0, 786, 2, -0.5, 803, 2, -0.5
*EQUATION
3
1375, 3, 1.0, 786, 3, -0.5, 803, 3, -0.5
*EQUATION
5
1378, 1, 1.0, 786, 1, -0.25, 834, 1, -0.25, 851, 1, -0.25, 803, 1, -0.25
*EQUATION
5
1378, 2, 1.0, 786, 2, -0.25, 834, 2, -0.25, 851, 2, -0.25, 803, 2, -0.25
*EQUATION
5
1378, 3, 1.0, 786, 3, -0.25, 834, 3, -0.25, 851, 3, -0.25, 803, 3, -0.25
*EQUATION
3
1379, 1, 1.0, 803, 1, -0.5, 851, 1, -0.5
*EQUATION
3
1379, 2, 1.0, 803, 2, -0.5, 851, 2, -0.5
*EQUATION
3
1379, 3, 1.0, 803, 3, -0.5, 851, 3, -0.5
*EQUATION
3
1382, 1, 1.0, 834, 1, -0.5, 851, 1, -0.5
*EQUATION
3
1382, 2, 1.0, 834, 2, -0.5, 851, 2, -0.5
*EQUATION
3
1382, 3, 1.0, 834, 3, -0.5, 851, 3, -0.5
*EQUATION
3
1385, 1, 1.0, 803, 1, -0.5, 804, 1, -0.5
*EQUATION
3
1385, 2, 1.0, 803, 2, -0.5, 804, 2, -0.5
*EQUATION
3
1385, 3, 1.0, 803, 3, -0.5, 804, 3, -0.5
*EQUATION
5
1388, 1, 1.0, 803, 1, -0.25, 851, 1, -0.25, 852, 1, -0.25, 804, 1, -0.25
*EQUATION
5
1388, 2, 1.0, 803, 2, -0.25, 851, 2, -0.25, 852, 2, -0.25, 804, 2, -0.25
*EQUATION
5
1388, 3, 1.0, 803, 3, -0.25, 851, 3, -0.25, 852, 3, -0.25, 804, 3, -0.25
*EQUATION
3
1389, 1, 1.0, 804, 1, -0.5, 852, 1, -0.5
*EQUATION
3
1389, 2, 1.0, 804, 2, -0.5, 852, 2, -0.5
*EQUATION
3
1389, 3, 1.0, 804, 3, -0.5, 852, 3, -0.5
*EQUATION
3
1392, 1, 1.0, 851, 1, -0.5, 852, 1, -0.5
*EQUATION
3
1392, 2, 1.0, 851, 2, -0.5, 852, 2, -0.5
*EQUATION
3
1392, 3, 1.0, 851, 3, -0.5, 852, 3, -0.5
*EQUATION
3
1438, 1, 1.0, 827, 1, -0.5, 875, 1, -0.5
*EQUATION
3
1438, 2, 1.0, 827, 2, -0.5, 875, 2, -0.5
*EQUATION
3
1438, 3, 1.0, 827, 3, -0.5, 875, 3, -0.5
*EQUATION
3
1481, 1, 1.0, 834, 1, -0.5, 882, 1, -0.5
*EQUATION
3
1481, 2, 1.0, 834, 2, -0.5, 882, 2, -0.5
*EQUATION
3
1481, 3, 1.0, 834, 3, -0.5, 882, 3, -0.5
*EQUATION
5
1485, 1, 1.0, 827, 1, -0.25, 875, 1, -0.25, 895, 1, -0.25, 847, 1, -0.25
*EQUATION
5
1485, 2, 1.0, 827, 2, -0.25, 875, 2, -0.25, 895, 2, -0.25, 847, 2, -0.25
*EQUATION
5
1485, 3, 1.0, 827, 3, -0.25, 875, 3, -0.25, 895, 3, -0.25, 847, 3, -0.25
*EQUATION
3
1486, 1, 1.0, 847, 1, -0.5, 895, 1, -0.5
*EQUATION
3
1486, 2, 1.0, 847, 2, -0.5, 895, 2, -0.5
*EQUATION
3
1486, 3, 1.0, 847, 3, -0.5, 895, 3, -0.5
*EQUATION
3
1491, 1, 1.0, 875, 1, -0.5, 895, 1, -0.5
*EQUATION
3
1491, 2, 1.0, 875, 2, -0.5, 895, 2, -0.5
*EQUATION
3
1491, 3, 1.0, 875, 3, -0.5, 895, 3, -0.5
*EQUATION
5
1495, 1, 1.0, 847, 1, -0.25, 895, 1, -0.25, 896, 1, -0.25, 848, 1, -0.25
*EQUATION
5
1495, 2, 1.0, 847, 2, -0.25, 895, 2, -0.25, 896, 2, -0.25, 848, 2, -0.25
*EQUATION
5
1495, 3, 1.0, 847, 3, -0.25, 895, 3, -0.25, 896, 3, -0.25, 848, 3, -0.25
*EQUATION
3
1496, 1, 1.0, 848, 1, -0.5, 896, 1, -0.5
*EQUATION
3
1496, 2, 1.0, 848, 2, -0.5, 896, 2, -0.5
*EQUATION
3
1496, 3, 1.0, 848, 3, -0.5, 896, 3, -0.5
*EQUATION
3
1501, 1, 1.0, 895, 1, -0.5, 896, 1, -0.5
*EQUATION
3
1501, 2, 1.0, 895, 2, -0.5, 896, 2, -0.5
*EQUATION
3
1501, 3, 1.0, 895, 3, -0.5, 896, 3, -0.5
*EQUATION
5
1507, 1, 1.0, 834, 1, -0.25, 882, 1, -0.25, 899, 1, -0.25, 851, 1, -0.25
*EQUATION
5
1507, 2, 1.0, 834, 2, -0.25, 882, 2, -0.25, 899, 2, -0.25, 851, 2, -0.25
*EQUATION
5
1507, 3, 1.0, 834, 3, -0.25, 882, 3, -0.25, 899, 3, -0.25, 851, 3, -0.25
*EQUATION
3
1508, 1, 1.0, 851, 1, -0.5, 899, 1, -0.5
*EQUATION
3
1508, 2, 1.0, 851, 2, -0.5, 899, 2, -0.5
*EQUATION
3
1508, 3, 1.0, 851, 3, -0.5, 899, 3, -0.5
*EQUATION
3
1511, 1, 1.0, 882, 1, -0.5, 899, 1, -0.5
*EQUATION
3
1511, 2, 1.0, 882, 2, -0.5, 899, 2, -0.5
*EQUATION
3
1511, 3, 1.0, 882, 3, -0.5, 899, 3, -0.5
*EQUATION
5
1514, 1, 1.0, 851, 1, -0.25, 899, 1, -0.25, 900, 1, -0.25, 852, 1, -0.25
*EQUATION
5
1514, 2, 1.0, 851, 2, -0.25, 899, 2, -0.25, 900, 2, -0.25, 852, 2, -0.25
*EQUATION
5
1514, 3, 1.0, 851, 3, -0.25, 899, 3, -0.25, 900, 3, -0.25, 852, 3, -0.25
*EQUATION
3
1515, 1, 1.0, 852, 1, -0.5, 900, 1, -0.5
*EQUATION
3
1515, 2, 1.0, 852, 2, -0.5, 900, 2, -0.5
*EQUATION
3
1515, 3, 1.0, 852, 3, -0.5, 900, 3, -0.5
*EQUATION
3
1518, 1, 1.0, 899, 1, -0.5, 900, 1, -0.5
*EQUATION
3
1518, 2, 1.0, 899, 2, -0.5, 900, 2, -0.5
*EQUATION
3
1518, 3, 1.0, 899, 3, -0.5, 900, 3, -0.5
*EQUATION
3
1526, 1, 1.0, 5, 1, -0.5, 6, 1, -0.5
*EQUATION
3
1526, 2, 1.0, 5, 2, -0.5, 6, 2, -0.5
*EQUATION
3
1526, 3, 1.0, 5, 3, -0.5, 6, 3, -0.5
*EQUATION
5
1529, 1, 1.0, 5, 1, -0.25, 6, 1, -0.25, 7, 1, -0.25, 8, 1, -0.25
*EQUATION
5
1529, 2, 1.0, 5, 2, -0.25, 6, 2, -0.25, 7, 2, -0.25, 8, 2, -0.25
*EQUATION
5
1529, 3, 1.0, 5, 3, -0.25, 6, 3, -0.25, 7, 3, -0.25, 8, 3, -0.25
*EQUATION
3
1532, 1, 1.0, 7, 1, -0.5, 8, 1, -0.5
*EQUATION
3
1532, 2, 1.0, 7, 2, -0.5, 8, 2, -0.5
*EQUATION
3
1532, 3, 1.0, 7, 3, -0.5, 8, 3, -0.5
*EQUATION
5
1539, 1, 1.0, 8, 1, -0.25, 7, 1, -0.25, 27, 1, -0.25, 28, 1, -0.25
*EQUATION
5
1539, 2, 1.0, 8, 2, -0.25, 7, 2, -0.25, 27, 2, -0.25, 28, 2, -0.25
*EQUATION
5
1539, 3, 1.0, 8, 3, -0.25, 7, 3, -0.25, 27, 3, -0.25, 28, 3, -0.25
*EQUATION
3
1542, 1, 1.0, 27, 1, -0.5, 28, 1, -0.5
*EQUATION
3
1542, 2, 1.0, 27, 2, -0.5, 28, 2, -0.5
*EQUATION
3
1542, 3, 1.0, 27, 3, -0.5, 28, 3, -0.5
*EQUATION
3
1543, 1, 1.0, 6, 1, -0.5, 10, 1, -0.5
*EQUATION
3
1543, 2, 1.0, 6, 2, -0.5, 10, 2, -0.5
*EQUATION
3
1543, 3, 1.0, 6, 3, -0.5, 10, 3, -0.5
*EQUATION
5
1544, 1, 1.0, 6, 1, -0.25, 7, 1, -0.25, 11, 1, -0.25, 10, 1, -0.25
*EQUATION
5
1544, 2, 1.0, 6, 2, -0.25, 7, 2, -0.25, 11, 2, -0.25, 10, 2, -0.25
*EQUATION
5
1544, 3, 1.0, 6, 3, -0.25, 7, 3, -0.25, 11, 3, -0.25, 10, 3, -0.25
*EQUATION
3
1545, 1, 1.0, 10, 1, -0.5, 11, 1, -0.5
*EQUATION
3
1545, 2, 1.0, 10, 2, -0.5, 11, 2, -0.5
*EQUATION
3
1545, 3, 1.0, 10, 3, -0.5, 11, 3, -0.5
*EQUATION
3
1546, 1, 1.0, 7, 1, -0.5, 11, 1, -0.5
*EQUATION
3
1546, 2, 1.0, 7, 2, -0.5, 11, 2, -0.5
*EQUATION
3
1546, 3, 1.0, 7, 3, -0.5, 11, 3, -0.5
*EQUATION
3
1548, 1, 1.0, 10, 1, -0.5, 101, 1, -0.5
*EQUATION
3
1548, 2, 1.0, 10, 2, -0.5, 101, 2, -0.5
*EQUATION
3
1548, 3, 1.0, 10, 3, -0.5, 101, 3, -0.5
*EQUATION
5
1550, 1, 1.0, 10, 1, -0.25, 101, 1, -0.25, 102, 1, -0.25, 11, 1, -0.25
*EQUATION
5
1550, 2, 1.0, 10, 2, -0.25, 101, 2, -0.25, 102, 2, -0.25, 11, 2, -0.25
*EQUATION
5
1550, 3, 1.0, 10, 3, -0.25, 101, 3, -0.25, 102, 3, -0.25, 11, 3, -0.25
*EQUATION
3
1552, 1, 1.0, 11, 1, -0.5, 102, 1, -0.5
*EQUATION
3
1552, 2, 1.0, 11, 2, -0.5, 102, 2, -0.5
*EQUATION
3
1552, 3, 1.0, 11, 3, -0.5, 102, 3, -0.5
*EQUATION
3
1553, 1, 1.0, 99, 1, -0.5, 101, 1, -0.5
*EQUATION
3
1553, 2, 1.0, 99, 2, -0.5, 101, 2, -0.5
*EQUATION
3
1553, 3, 1.0, 99, 3, -0.5, 101, 3, -0.5
*EQUATION
5
1554, 1, 1.0, 99, 1, -0.25, 100, 1, -0.25, 102, 1, -0.25, 101, 1, -0.25
*EQUATION
5
1554, 2, 1.0, 99, 2, -0.25, 100, 2, -0.25, 102, 2, -0.25, 101, 2, -0.25
*EQUATION
5
1554, 3, 1.0, 99, 3, -0.25, 100, 3, -0.25, 102, 3, -0.25, 101, 3, -0.25
*EQUATION
3
1555, 1, 1.0, 101, 1, -0.5, 102, 1, -0.5
*EQUATION
3
1555, 2, 1.0, 101, 2, -0.5, 102, 2, -0.5
*EQUATION
3
1555, 3, 1.0, 101, 3, -0.5, 102, 3, -0.5
*EQUATION
3
1556, 1, 1.0, 100, 1, -0.5, 102, 1, -0.5
*EQUATION
3
1556, 2, 1.0, 100, 2, -0.5, 102, 2, -0.5
*EQUATION
3
1556, 3, 1.0, 100, 3, -0.5, 102, 3, -0.5
*EQUATION
5
1557, 1, 1.0, 7, 1, -0.25, 27, 1, -0.25, 29, 1, -0.25, 11, 1, -0.25
*EQUATION
5
1557, 2, 1.0, 7, 2, -0.25, 27, 2, -0.25, 29, 2, -0.25, 11, 2, -0.25
*EQUATION
5
1557, 3, 1.0, 7, 3, -0.25, 27, 3, -0.25, 29, 3, -0.25, 11, 3, -0.25
*EQUATION
3
1558, 1, 1.0, 11, 1, -0.5, 29, 1, -0.5
*EQUATION
3
1558, 2, 1.0, 11, 2, -0.5, 29, 2, -0.5
*EQUATION
3
1558, 3, 1.0, 11, 3, -0.5, 29, 3, -0.5
*EQUATION
3
1559, 1, 1.0, 27, 1, -0.5, 29, 1, -0.5
*EQUATION
3
1559, 2, 1.0, 27, 2, -0.5, 29, 2, -0.5
*EQUATION
3
1559, 3, 1.0, 27, 3, -0.5, 29, 3, -0.5
*EQUATION
5
1561, 1, 1.0, 11, 1, -0.25, 102, 1, -0.25, 111, 1, -0.25, 29, 1, -0.25
*EQUATION
5
1561, 2, 1.0, 11, 2, -0.25, 102, 2, -0.25, 111, 2, -0.25, 29, 2, -0.25
*EQUATION
5
1561, 3, 1.0, 11, 3, -0.25, 102, 3, -0.25, 111, 3, -0.25, 29, 3, -0.25
*EQUATION
3
1563, 1, 1.0, 29, 1, -0.5, 111, 1, -0.5
*EQUATION
3
1563, 2, 1.0, 29, 2, -0.5, 111, 2, -0.5
*EQUATION
3
1563, 3, 1.0, 29, 3, -0.5, 111, 3, -0.5
*EQUATION
5
1564, 1, 1.0, 100, 1, -0.25, 110, 1, -0.25, 111, 1, -0.25, 102, 1, -0.25
*EQUATION
5
1564, 2, 1.0, 100, 2, -0.25, 110, 2, -0.25, 111, 2, -0.25, 102, 2, -0.25
*EQUATION
5
1564, 3, 1.0, 100, 3, -0.25, 110, 3, -0.25, 111, 3, -0.25, 102, 3, -0.25
*EQUATION
3
1565, 1, 1.0, 102, 1, -0.5, 111, 1, -0.5
*EQUATION
3
1565, 2, 1.0, 102, 2, -0.5, 111, 2, -0.5
*EQUATION
3
1565, 3, 1.0, 102, 3, -0.5, 111, 3, -0.5
*EQUATION
3
1566, 1, 1.0, 110, 1, -0.5, 111, 1, -0.5
*EQUATION
3
1566, 2, 1.0, 110, 2, -0.5, 111, 2, -0.5
*EQUATION
3
1566, 3, 1.0, 110, 3, -0.5, 111, 3, -0.5
*EQUATION
3
1569, 1, 1.0, 99, 1, -0.5, 147, 1, -0.5
*EQUATION
3
1569, 2, 1.0, 99, 2, -0.5, 147, 2, -0.5
*EQUATION
3
1569, 3, 1.0, 99, 3, -0.5, 147, 3, -0.5
*EQUATION
5
1572, 1, 1.0, 99, 1, -0.25, 147, 1, -0.25, 148, 1, -0.25, 100, 1, -0.25
*EQUATION
5
1572, 2, 1.0, 99, 2, -0.25, 147, 2, -0.25, 148, 2, -0.25, 100, 2, -0.25
*EQUATION
5
1572, 3, 1.0, 99, 3, -0.25, 147, 3, -0.25, 148, 3, -0.25, 100, 3, -0.25
*EQUATION
3
1575, 1, 1.0, 100, 1, -0.5, 148, 1, -0.5
*EQUATION
3
1575, 2, 1.0, 100, 2, -0.5, 148, 2, -0.5
*EQUATION
3
1575, 3, 1.0, 100, 3, -0.5, 148, 3, -0.5
*EQUATION
3
1576, 1, 1.0, 145, 1, -0.5, 147, 1, -0.5
*EQUATION
3
1576, 2, 1.0, 145, 2, -0.5, 147, 2, -0.5
*EQUATION
3
1576, 3, 1.0, 145, 3, -0.5, 147, 3, -0.5
*EQUATION
3
1577, 1, 1.0, 145, 1, -0.5, 146, 1, -0.5
*EQUATION
3
1577, 2, 1.0, 145, 2, -0.5, 146, 2, -0.5
*EQUATION
3
1577, 3, 1.0, 145, 3, -0.5, 146, 3, -0.5
*EQUATION
5
1578, 1, 1.0, 145, 1, -0.25, 146, 1, -0.25, 148, 1, -0.25, 147, 1, -0.25
*EQUATION
5
1578, 2, 1.0, 145, 2, -0.25, 146, 2, -0.25, 148, 2, -0.25, 147, 2, -0.25
*EQUATION
5
1578, 3, 1.0, 145, 3, -0.25, 146, 3, -0.25, 148, 3, -0.25, 147, 3, -0.25
*EQUATION
3
1579, 1, 1.0, 147, 1, -0.5, 148, 1, -0.5
*EQUATION
3
1579, 2, 1.0, 147, 2, -0.5, 148, 2, -0.5
*EQUATION
3
1579, 3, 1.0, 147, 3, -0.5, 148, 3, -0.5
*EQUATION
3
1580, 1, 1.0, 146, 1, -0.5, 148, 1, -0.5
*EQUATION
3
1580, 2, 1.0, 146, 2, -0.5, 148, 2, -0.5
*EQUATION
3
1580, 3, 1.0, 146, 3, -0.5, 148, 3, -0.5
*EQUATION
5
1583, 1, 1.0, 100, 1, -0.25, 148, 1, -0.25, 158, 1, -0.25, 110, 1, -0.25
*EQUATION
5
1583, 2, 1.0, 100, 2, -0.25, 148, 2, -0.25, 158, 2, -0.25, 110, 2, -0.25
*EQUATION
5
1583, 3, 1.0, 100, 3, -0.25, 148, 3, -0.25, 158, 3, -0.25, 110, 3, -0.25
*EQUATION
3
1586, 1, 1.0, 110, 1, -0.5, 158, 1, -0.5
*EQUATION
3
1586, 2, 1.0, 110, 2, -0.5, 158, 2, -0.5
*EQUATION
3
1586, 3, 1.0, 110, 3, -0.5, 158, 3, -0.5
*EQUATION
3
1587, 1, 1.0, 146, 1, -0.5, 157, 1, -0.5
*EQUATION
3
1587, 2, 1.0, 146, 2, -0.5, 157, 2, -0.5
*EQUATION
3
1587, 3, 1.0, 146, 3, -0.5, 157, 3, -0.5
*EQUATION
5
1588, 1, 1.0, 146, 1, -0.25, 157, 1, -0.25, 158, 1, -0.25, 148, 1, -0.25
*EQUATION
5
1588, 2, 1.0, 146, 2, -0.25, 157, 2, -0.25, 158, 2, -0.25, 148, 2, -0.25
*EQUATION
5
1588, 3, 1.0, 146, 3, -0.25, 157, 3, -0.25, 158, 3, -0.25, 148, 3, -0.25
*EQUATION
3
1589, 1, 1.0, 148, 1, -0.5, 158, 1, -0.5
*EQUATION
3
1589, 2, 1.0, 148, 2, -0.5, 158, 2, -0.5
*EQUATION
3
1589, 3, 1.0, 148, 3, -0.5, 158, 3, -0.5
*EQUATION
3
1590, 1, 1.0, 157, 1, -0.5, 158, 1, -0.5
*EQUATION
3
1590, 2, 1.0, 157, 2, -0.5, 158, 2, -0.5
*EQUATION
3
1590, 3, 1.0, 157, 3, -0.5, 158, 3, -0.5
*EQUATION
3
1591, 1, 1.0, 241, 1, -0.5, 243, 1, -0.5
*EQUATION
3
1591, 2, 1.0, 241, 2, -0.5, 243, 2, -0.5
*EQUATION
3
1591, 3, 1.0, 241, 3, -0.5, 243, 3, -0.5
*EQUATION
3
1592, 1, 1.0, 241, 1, -0.5, 242, 1, -0.5
*EQUATION
3
1592, 2, 1.0, 241, 2, -0.5, 242, 2, -0.5
*EQUATION
3
1592, 3, 1.0, 241, 3, -0.5, 242, 3, -0.5
*EQUATION
5
1593, 1, 1.0, 241, 1, -0.25, 242, 1, -0.25, 244, 1, -0.25, 243, 1, -0.25
*EQUATION
5
1593, 2, 1.0, 241, 2, -0.25, 242, 2, -0.25, 244, 2, -0.25, 243, 2, -0.25
*EQUATION
5
1593, 3, 1.0, 241, 3, -0.25, 242, 3, -0.25, 244, 3, -0.25, 243, 3, -0.25
*EQUATION
3
1594, 1, 1.0, 243, 1, -0.5, 244, 1, -0.5
*EQUATION
3
1594, 2, 1.0, 243, 2, -0.5, 244, 2, -0.5
*EQUATION
3
1594, 3, 1.0, 243, 3, -0.5, 244, 3, -0.5
*EQUATION
3
1595, 1, 1.0, 242, 1, -0.5, 244, 1, -0.5
*EQUATION
3
1595, 2, 1.0, 242, 2, -0.5, 244, 2, -0.5
*EQUATION
3
1595, 3, 1.0, 242, 3, -0.5, 244, 3, -0.5
*EQUATION
3
1598, 1, 1.0, 243, 1, -0.5, 291, 1, -0.5
*EQUATION
3
1598, 2, 1.0, 243, 2, -0.5, 291, 2, -0.5
*EQUATION
3
1598, 3, 1.0, 243, 3, -0.5, 291, 3, -0.5
*EQUATION
5
1601, 1, 1.0, 243, 1, -0.25, 291, 1, -0.25, 292, 1, -0.25, 244, 1, -0.25
*EQUATION
5
1601, 2, 1.0, 243, 2, -0.25, 291, 2, -0.25, 292, 2, -0.25, 244, 2, -0.25
*EQUATION
5
1601, 3, 1.0, 243, 3, -0.25, 291, 3, -0.25, 292, 3, -0.25, 244, 3, -0.25
*EQUATION
3
1604, 1, 1.0, 244, 1, -0.5, 292, 1, -0.5
*EQUATION
3
1604, 2, 1.0, 244, 2, -0.5, 292, 2, -0.5
*EQUATION
3
1604, 3, 1.0, 244, 3, -0.5, 292, 3, -0.5
*EQUATION
3
1608, 1, 1.0, 291, 1, -0.5, 292, 1, -0.5
*EQUATION
3
1608, 2, 1.0, 291, 2, -0.5, 292, 2, -0.5
*EQUATION
3
1608, 3, 1.0, 291, 3, -0.5, 292, 3, -0.5
*EQUATION
3
1610, 1, 1.0, 242, 1, -0.5, 253, 1, -0.5
*EQUATION
3
1610, 2, 1.0, 242, 2, -0.5, 253, 2, -0.5
*EQUATION
3
1610, 3, 1.0, 242, 3, -0.5, 253, 3, -0.5
*EQUATION
5
1611, 1, 1.0, 242, 1, -0.25, 253, 1, -0.25, 254, 1, -0.25, 244, 1, -0.25
*EQUATION
5
1611, 2, 1.0, 242, 2, -0.25, 253, 2, -0.25, 254, 2, -0.25, 244, 2, -0.25
*EQUATION
5
1611, 3, 1.0, 242, 3, -0.25, 253, 3, -0.25, 254, 3, -0.25, 244, 3, -0.25
*EQUATION
3
1612, 1, 1.0, 244, 1, -0.5, 254, 1, -0.5
*EQUATION
3
1612, 2, 1.0, 244, 2, -0.5, 254, 2, -0.5
*EQUATION
3
1612, 3, 1.0, 244, 3, -0.5, 254, 3, -0.5
*EQUATION
3
1613, 1, 1.0, 253, 1, -0.5, 254, 1, -0.5
*EQUATION
3
1613, 2, 1.0, 253, 2, -0.5, 254, 2, -0.5
*EQUATION
3
1613, 3, 1.0, 253, 3, -0.5, 254, 3, -0.5
*EQUATION
5
1616, 1, 1.0, 244, 1, -0.25, 292, 1, -0.25, 302, 1, -0.25, 254, 1, -0.25
*EQUATION
5
1616, 2, 1.0, 244, 2, -0.25, 292, 2, -0.25, 302, 2, -0.25, 254, 2, -0.25
*EQUATION
5
1616, 3, 1.0, 244, 3, -0.25, 292, 3, -0.25, 302, 3, -0.25, 254, 3, -0.25
*EQUATION
3
1619, 1, 1.0, 254, 1, -0.5, 302, 1, -0.5
*EQUATION
3
1619, 2, 1.0, 254, 2, -0.5, 302, 2, -0.5
*EQUATION
3
1619, 3, 1.0, 254, 3, -0.5, 302, 3, -0.5
*EQUATION
3
1622, 1, 1.0, 292, 1, -0.5, 302, 1, -0.5
*EQUATION
3
1622, 2, 1.0, 292, 2, -0.5, 302, 2, -0.5
*EQUATION
3
1622, 3, 1.0, 292, 3, -0.5, 302, 3, -0.5
*EQUATION
3
1626, 1, 1.0, 291, 1, -0.5, 339, 1, -0.5
*EQUATION
3
1626, 2, 1.0, 291, 2, -0.5, 339, 2, -0.5
*EQUATION
3
1626, 3, 1.0, 291, 3, -0.5, 339, 3, -0.5
*EQUATION
5
1629, 1, 1.0, 291, 1, -0.25, 339, 1, -0.25, 340, 1, -0.25, 292, 1, -0.25
*EQUATION
5
1629, 2, 1.0, 291, 2, -0.25, 339, 2, -0.25, 340, 2, -0.25, 292, 2, -0.25
*EQUATION
5
1629, 3, 1.0, 291, 3, -0.25, 339, 3, -0.25, 340, 3, -0.25, 292, 3, -0.25
*EQUATION
3
1632, 1, 1.0, 292, 1, -0.5, 340, 1, -0.5
*EQUATION
3
1632, 2, 1.0, 292, 2, -0.5, 340, 2, -0.5
*EQUATION
3
1632, 3, 1.0, 292, 3, -0.5, 340, 3, -0.5
*EQUATION
3
1636, 1, 1.0, 339, 1, -0.5, 340, 1, -0.5
*EQUATION
3
1636, 2, 1.0, 339, 2, -0.5, 340, 2, -0.5
*EQUATION
3
1636, 3, 1.0, 339, 3, -0.5, 340, 3, -0.5
*EQUATION
5
1640, 1, 1.0, 292, 1, -0.25, 340, 1, -0.25, 350, 1, -0.25, 302, 1, -0.25
*EQUATION
5
1640, 2, 1.0, 292, 2, -0.25, 340, 2, -0.25, 350, 2, -0.25, 302, 2, -0.25
*EQUATION
5
1640, 3, 1.0, 292, 3, -0.25, 340, 3, -0.25, 350, 3, -0.25, 302, 3, -0.25
*EQUATION
3
1643, 1, 1.0, 302, 1, -0.5, 350, 1, -0.5
*EQUATION
3
1643, 2, 1.0, 302, 2, -0.5, 350, 2, -0.5
*EQUATION
3
1643, 3, 1.0, 302, 3, -0.5, 350, 3, -0.5
*EQUATION
3
1646, 1, 1.0, 340, 1, -0.5, 350, 1, -0.5
*EQUATION
3
1646, 2, 1.0, 340, 2, -0.5, 350, 2, -0.5
*EQUATION
3
1646, 3, 1.0, 340, 3, -0.5, 350, 3, -0.5
*EQUATION
3
1650, 1, 1.0, 339, 1, -0.5, 387, 1, -0.5
*EQUATION
3
1650, 2, 1.0, 339, 2, -0.5, 387, 2, -0.5
*EQUATION
3
1650, 3, 1.0, 339, 3, -0.5, 387, 3, -0.5
*EQUATION
5
1653, 1, 1.0, 339, 1, -0.25, 387, 1, -0.25, 388, 1, -0.25, 340, 1, -0.25
*EQUATION
5
1653, 2, 1.0, 339, 2, -0.25, 387, 2, -0.25, 388, 2, -0.25, 340, 2, -0.25
*EQUATION
5
1653, 3, 1.0, 339, 3, -0.25, 387, 3, -0.25, 388, 3, -0.25, 340, 3, -0.25
*EQUATION
3
1656, 1, 1.0, 340, 1, -0.5, 388, 1, -0.5
*EQUATION
3
1656, 2, 1.0, 340, 2, -0.5, 388, 2, -0.5
*EQUATION
3
1656, 3, 1.0, 340, 3, -0.5, 388, 3, -0.5
*EQUATION
3
1660, 1, 1.0, 387, 1, -0.5, 388, 1, -0.5
*EQUATION
3
1660, 2, 1.0, 387, 2, -0.5, 388, 2, -0.5
*EQUATION
3
1660, 3, 1.0, 387, 3, -0.5, 388, 3, -0.5
*EQUATION
5
1664, 1, 1.0, 340, 1, -0.25, 388, 1, -0.25, 398, 1, -0.25, 350, 1, -0.25
*EQUATION
5
1664, 2, 1.0, 340, 2, -0.25, 388, 2, -0.25, 398, 2, -0.25, 350, 2, -0.25
*EQUATION
5
1664, 3, 1.0, 340, 3, -0.25, 388, 3, -0.25, 398, 3, -0.25, 350, 3, -0.25
*EQUATION
3
1667, 1, 1.0, 350, 1, -0.5, 398, 1, -0.5
*EQUATION
3
1667, 2, 1.0, 350, 2, -0.5, 398, 2, -0.5
*EQUATION
3
1667, 3, 1.0, 350, 3, -0.5, 398, 3, -0.5
*EQUATION
3
1670, 1, 1.0, 388, 1, -0.5, 398, 1, -0.5
*EQUATION
3
1670, 2, 1.0, 388, 2, -0.5, 398, 2, -0.5
*EQUATION
3
1670, 3, 1.0, 388, 3, -0.5, 398, 3, -0.5
*EQUATION
3
1674, 1, 1.0, 387, 1, -0.5, 435, 1, -0.5
*EQUATION
3
1674, 2, 1.0, 387, 2, -0.5, 435, 2, -0.5
*EQUATION
3
1674, 3, 1.0, 387, 3, -0.5, 435, 3, -0.5
*EQUATION
5
1677, 1, 1.0, 387, 1, -0.25, 435, 1, -0.25, 436, 1, -0.25, 388, 1, -0.25
*EQUATION
5
1677, 2, 1.0, 387, 2, -0.25, 435, 2, -0.25, 436, 2, -0.25, 388, 2, -0.25
*EQUATION
5
1677, 3, 1.0, 387, 3, -0.25, 435, 3, -0.25, 436, 3, -0.25, 388, 3, -0.25
*EQUATION
3
1680, 1, 1.0, 388, 1, -0.5, 436, 1, -0.5
*EQUATION
3
1680, 2, 1.0, 388, 2, -0.5, 436, 2, -0.5
*EQUATION
3
1680, 3, 1.0, 388, 3, -0.5, 436, 3, -0.5
*EQUATION
3
1684, 1, 1.0, 435, 1, -0.5, 436, 1, -0.5
*EQUATION
3
1684, 2, 1.0, 435, 2, -0.5, 436, 2, -0.5
*EQUATION
3
1684, 3, 1.0, 435, 3, -0.5, 436, 3, -0.5
*EQUATION
5
1688, 1, 1.0, 388, 1, -0.25, 436, 1, -0.25, 446, 1, -0.25, 398, 1, -0.25
*EQUATION
5
1688, 2, 1.0, 388, 2, -0.25, 436, 2, -0.25, 446, 2, -0.25, 398, 2, -0.25
*EQUATION
5
1688, 3, 1.0, 388, 3, -0.25, 436, 3, -0.25, 446, 3, -0.25, 398, 3, -0.25
*EQUATION
3
1691, 1, 1.0, 398, 1, -0.5, 446, 1, -0.5
*EQUATION
3
1691, 2, 1.0, 398, 2, -0.5, 446, 2, -0.5
*EQUATION
3
1691, 3, 1.0, 398, 3, -0.5, 446, 3, -0.5
*EQUATION
3
1694, 1, 1.0, 436, 1, -0.5, 446, 1, -0.5
*EQUATION
3
1694, 2, 1.0, 436, 2, -0.5, 446, 2, -0.5
*EQUATION
3
1694, 3, 1.0, 436, 3, -0.5, 446, 3, -0.5
*EQUATION
3
1710, 1, 1.0, 435, 1, -0.5, 437, 1, -0.5
*EQUATION
3
1710, 2, 1.0, 435, 2, -0.5, 437, 2, -0.5
*EQUATION
3
1710, 3, 1.0, 435, 3, -0.5, 437, 3, -0.5
*EQUATION
5
1711, 1, 1.0, 435, 1, -0.25, 436, 1, -0.25, 438, 1, -0.25, 437, 1, -0.25
*EQUATION
5
1711, 2, 1.0, 435, 2, -0.25, 436, 2, -0.25, 438, 2, -0.25, 437, 2, -0.25
*EQUATION
5
1711, 3, 1.0, 435, 3, -0.25, 436, 3, -0.25, 438, 3, -0.25, 437, 3, -0.25
*EQUATION
3
1712, 1, 1.0, 437, 1, -0.5, 438, 1, -0.5
*EQUATION
3
1712, 2, 1.0, 437, 2, -0.5, 438, 2, -0.5
*EQUATION
3
1712, 3, 1.0, 437, 3, -0.5, 438, 3, -0.5
*EQUATION
3
1713, 1, 1.0, 436, 1, -0.5, 438, 1, -0.5
*EQUATION
3
1713, 2, 1.0, 436, 2, -0.5, 438, 2, -0.5
*EQUATION
3
1713, 3, 1.0, 436, 3, -0.5, 438, 3, -0.5
*EQUATION
3
1724, 1, 1.0, 437, 1, -0.5, 439, 1, -0.5
*EQUATION
3
1724, 2, 1.0, 437, 2, -0.5, 439, 2, -0.5
*EQUATION
3
1724, 3, 1.0, 437, 3, -0.5, 439, 3, -0.5
*EQUATION
5
1725, 1, 1.0, 437, 1, -0.25, 438, 1, -0.25, 440, 1, -0.25, 439, 1, -0.25
*EQUATION
5
1725, 2, 1.0, 437, 2, -0.25, 438, 2, -0.25, 440, 2, -0.25, 439, 2, -0.25
*EQUATION
5
1725, 3, 1.0, 437, 3, -0.25, 438, 3, -0.25, 440, 3, -0.25, 439, 3, -0.25
*EQUATION
3
1726, 1, 1.0, 439, 1, -0.5, 440, 1, -0.5
*EQUATION
3
1726, 2, 1.0, 439, 2, -0.5, 440, 2, -0.5
*EQUATION
3
1726, 3, 1.0, 439, 3, -0.5, 440, 3, -0.5
*EQUATION
3
1727, 1, 1.0, 438, 1, -0.5, 440, 1, -0.5
*EQUATION
3
1727, 2, 1.0, 438, 2, -0.5, 440, 2, -0.5
*EQUATION
3
1727, 3, 1.0, 438, 3, -0.5, 440, 3, -0.5
*EQUATION
3
1729, 1, 1.0, 439, 1, -0.5, 487, 1, -0.5
*EQUATION
3
1729, 2, 1.0, 439, 2, -0.5, 487, 2, -0.5
*EQUATION
3
1729, 3, 1.0, 439, 3, -0.5, 487, 3, -0.5
*EQUATION
5
1731, 1, 1.0, 439, 1, -0.25, 487, 1, -0.25, 488, 1, -0.25, 440, 1, -0.25
*EQUATION
5
1731, 2, 1.0, 439, 2, -0.25, 487, 2, -0.25, 488, 2, -0.25, 440, 2, -0.25
*EQUATION
5
1731, 3, 1.0, 439, 3, -0.25, 487, 3, -0.25, 488, 3, -0.25, 440, 3, -0.25
*EQUATION
3
1733, 1, 1.0, 440, 1, -0.5, 488, 1, -0.5
*EQUATION
3
1733, 2, 1.0, 440, 2, -0.5, 488, 2, -0.5
*EQUATION
3
1733, 3, 1.0, 440, 3, -0.5, 488, 3, -0.5
*EQUATION
3
1736, 1, 1.0, 487, 1, -0.5, 488, 1, -0.5
*EQUATION
3
1736, 2, 1.0, 487, 2, -0.5, 488, 2, -0.5
*EQUATION
3
1736, 3, 1.0, 487, 3, -0.5, 488, 3, -0.5
*EQUATION
3
1738, 1, 1.0, 441, 1, -0.5, 443, 1, -0.5
*EQUATION
3
1738, 2, 1.0, 441, 2, -0.5, 443, 2, -0.5
*EQUATION
3
1738, 3, 1.0, 441, 3, -0.5, 443, 3, -0.5
*EQUATION
3
1739, 1, 1.0, 441, 1, -0.5, 442, 1, -0.5
*EQUATION
3
1739, 2, 1.0, 441, 2, -0.5, 442, 2, -0.5
*EQUATION
3
1739, 3, 1.0, 441, 3, -0.5, 442, 3, -0.5
*EQUATION
5
1740, 1, 1.0, 441, 1, -0.25, 442, 1, -0.25, 444, 1, -0.25, 443, 1, -0.25
*EQUATION
5
1740, 2, 1.0, 441, 2, -0.25, 442, 2, -0.25, 444, 2, -0.25, 443, 2, -0.25
*EQUATION
5
1740, 3, 1.0, 441, 3, -0.25, 442, 3, -0.25, 444, 3, -0.25, 443, 3, -0.25
*EQUATION
3
1741, 1, 1.0, 443, 1, -0.5, 444, 1, -0.5
*EQUATION
3
1741, 2, 1.0, 443, 2, -0.5, 444, 2, -0.5
*EQUATION
3
1741, 3, 1.0, 443, 3, -0.5, 444, 3, -0.5
*EQUATION
3
1742, 1, 1.0, 442, 1, -0.5, 444, 1, -0.5
*EQUATION
3
1742, 2, 1.0, 442, 2, -0.5, 444, 2, -0.5
*EQUATION
3
1742, 3, 1.0, 442, 3, -0.5, 444, 3, -0.5
*EQUATION
3
1743, 1, 1.0, 441, 1, -0.5, 489, 1, -0.5
*EQUATION
3
1743, 2, 1.0, 441, 2, -0.5, 489, 2, -0.5
*EQUATION
3
1743, 3, 1.0, 441, 3, -0.5, 489, 3, -0.5
*EQUATION
3
1745, 1, 1.0, 443, 1, -0.5, 491, 1, -0.5
*EQUATION
3
1745, 2, 1.0, 443, 2, -0.5, 491, 2, -0.5
*EQUATION
3
1745, 3, 1.0, 443, 3, -0.5, 491, 3, -0.5
*EQUATION
5
1746, 1, 1.0, 441, 1, -0.25, 489, 1, -0.25, 490, 1, -0.25, 442, 1, -0.25
*EQUATION
5
1746, 2, 1.0, 441, 2, -0.25, 489, 2, -0.25, 490, 2, -0.25, 442, 2, -0.25
*EQUATION
5
1746, 3, 1.0, 441, 3, -0.25, 489, 3, -0.25, 490, 3, -0.25, 442, 3, -0.25
*EQUATION
5
1748, 1, 1.0, 443, 1, -0.25, 491, 1, -0.25, 492, 1, -0.25, 444, 1, -0.25
*EQUATION
5
1748, 2, 1.0, 443, 2, -0.25, 491, 2, -0.25, 492, 2, -0.25, 444, 2, -0.25
*EQUATION
5
1748, 3, 1.0, 443, 3, -0.25, 491, 3, -0.25, 492, 3, -0.25, 444, 3, -0.25
*EQUATION
3
1749, 1, 1.0, 442, 1, -0.5, 490, 1, -0.5
*EQUATION
3
1749, 2, 1.0, 442, 2, -0.5, 490, 2, -0.5
*EQUATION
3
1749, 3, 1.0, 442, 3, -0.5, 490, 3, -0.5
*EQUATION
3
1751, 1, 1.0, 444, 1, -0.5, 492, 1, -0.5
*EQUATION
3
1751, 2, 1.0, 444, 2, -0.5, 492, 2, -0.5
*EQUATION
3
1751, 3, 1.0, 444, 3, -0.5, 492, 3, -0.5
*EQUATION
3
1753, 1, 1.0, 489, 1, -0.5, 490, 1, -0.5
*EQUATION
3
1753, 2, 1.0, 489, 2, -0.5, 490, 2, -0.5
*EQUATION
3
1753, 3, 1.0, 489, 3, -0.5, 490, 3, -0.5
*EQUATION
3
1755, 1, 1.0, 491, 1, -0.5, 492, 1, -0.5
*EQUATION
3
1755, 2, 1.0, 491, 2, -0.5, 492, 2, -0.5
*EQUATION
3
1755, 3, 1.0, 491, 3, -0.5, 492, 3, -0.5
*EQUATION
5
1767, 1, 1.0, 436, 1, -0.25, 446, 1, -0.25, 447, 1, -0.25, 438, 1, -0.25
*EQUATION
5
1767, 2, 1.0, 436, 2, -0.25, 446, 2, -0.25, 447, 2, -0.25, 438, 2, -0.25
*EQUATION
5
1767, 3, 1.0, 436, 3, -0.25, 446, 3, -0.25, 447, 3, -0.25, 438, 3, -0.25
*EQUATION
3
1768, 1, 1.0, 438, 1, -0.5, 447, 1, -0.5
*EQUATION
3
1768, 2, 1.0, 438, 2, -0.5, 447, 2, -0.5
*EQUATION
3
1768, 3, 1.0, 438, 3, -0.5, 447, 3, -0.5
*EQUATION
3
1769, 1, 1.0, 446, 1, -0.5, 447, 1, -0.5
*EQUATION
3
1769, 2, 1.0, 446, 2, -0.5, 447, 2, -0.5
*EQUATION
3
1769, 3, 1.0, 446, 3, -0.5, 447, 3, -0.5
*EQUATION
5
1777, 1, 1.0, 438, 1, -0.25, 447, 1, -0.25, 448, 1, -0.25, 440, 1, -0.25
*EQUATION
5
1777, 2, 1.0, 438, 2, -0.25, 447, 2, -0.25, 448, 2, -0.25, 440, 2, -0.25
*EQUATION
5
1777, 3, 1.0, 438, 3, -0.25, 447, 3, -0.25, 448, 3, -0.25, 440, 3, -0.25
*EQUATION
3
1778, 1, 1.0, 440, 1, -0.5, 448, 1, -0.5
*EQUATION
3
1778, 2, 1.0, 440, 2, -0.5, 448, 2, -0.5
*EQUATION
3
1778, 3, 1.0, 440, 3, -0.5, 448, 3, -0.5
*EQUATION
3
1779, 1, 1.0, 447, 1, -0.5, 448, 1, -0.5
*EQUATION
3
1779, 2, 1.0, 447, 2, -0.5, 448, 2, -0.5
*EQUATION
3
1779, 3, 1.0, 447, 3, -0.5, 448, 3, -0.5
*EQUATION
5
1781, 1, 1.0, 440, 1, -0.25, 488, 1, -0.25, 496, 1, -0.25, 448, 1, -0.25
*EQUATION
5
1781, 2, 1.0, 440, 2, -0.25, 488, 2, -0.25, 496, 2, -0.25, 448, 2, -0.25
*EQUATION
5
1781, 3, 1.0, 440, 3, -0.25, 488, 3, -0.25, 496, 3, -0.25, 448, 3, -0.25
*EQUATION
3
1783, 1, 1.0, 448, 1, -0.5, 496, 1, -0.5
*EQUATION
3
1783, 2, 1.0, 448, 2, -0.5, 496, 2, -0.5
*EQUATION
3
1783, 3, 1.0, 448, 3, -0.5, 496, 3, -0.5
*EQUATION
3
1785, 1, 1.0, 488, 1, -0.5, 496, 1, -0.5
*EQUATION
3
1785, 2, 1.0, 488, 2, -0.5, 496, 2, -0.5
*EQUATION
3
1785, 3, 1.0, 488, 3, -0.5, 496, 3, -0.5
*EQUATION
3
1787, 1, 1.0, 442, 1, -0.5, 449, 1, -0.5
*EQUATION
3
1787, 2, 1.0, 442, 2, -0.5, 449, 2, -0.5
*EQUATION
3
1787, 3, 1.0, 442, 3, -0.5, 449, 3, -0.5
*EQUATION
5
1788, 1, 1.0, 442, 1, -0.25, 449, 1, -0.25, 450, 1, -0.25, 444, 1, -0.25
*EQUATION
5
1788, 2, 1.0, 442, 2, -0.25, 449, 2, -0.25, 450, 2, -0.25, 444, 2, -0.25
*EQUATION
5
1788, 3, 1.0, 442, 3, -0.25, 449, 3, -0.25, 450, 3, -0.25, 444, 3, -0.25
*EQUATION
3
1789, 1, 1.0, 444, 1, -0.5, 450, 1, -0.5
*EQUATION
3
1789, 2, 1.0, 444, 2, -0.5, 450, 2, -0.5
*EQUATION
3
1789, 3, 1.0, 444, 3, -0.5, 450, 3, -0.5
*EQUATION
3
1790, 1, 1.0, 449, 1, -0.5, 450, 1, -0.5
*EQUATION
3
1790, 2, 1.0, 449, 2, -0.5, 450, 2, -0.5
*EQUATION
3
1790, 3, 1.0, 449, 3, -0.5, 450, 3, -0.5
*EQUATION
5
1791, 1, 1.0, 442, 1, -0.25, 490, 1, -0.25, 497, 1, -0.25, 449, 1, -0.25
*EQUATION
5
1791, 2, 1.0, 442, 2, -0.25, 490, 2, -0.25, 497, 2, -0.25, 449, 2, -0.25
*EQUATION
5
1791, 3, 1.0, 442, 3, -0.25, 490, 3, -0.25, 497, 3, -0.25, 449, 3, -0.25
*EQUATION
5
1793, 1, 1.0, 444, 1, -0.25, 492, 1, -0.25, 498, 1, -0.25, 450, 1, -0.25
*EQUATION
5
1793, 2, 1.0, 444, 2, -0.25, 492, 2, -0.25, 498, 2, -0.25, 450, 2, -0.25
*EQUATION
5
1793, 3, 1.0, 444, 3, -0.25, 492, 3, -0.25, 498, 3, -0.25, 450, 3, -0.25
*EQUATION
3
1794, 1, 1.0, 449, 1, -0.5, 497, 1, -0.5
*EQUATION
3
1794, 2, 1.0, 449, 2, -0.5, 497, 2, -0.5
*EQUATION
3
1794, 3, 1.0, 449, 3, -0.5, 497, 3, -0.5
*EQUATION
3
1796, 1, 1.0, 450, 1, -0.5, 498, 1, -0.5
*EQUATION
3
1796, 2, 1.0, 450, 2, -0.5, 498, 2, -0.5
*EQUATION
3
1796, 3, 1.0, 450, 3, -0.5, 498, 3, -0.5
*EQUATION
3
1797, 1, 1.0, 490, 1, -0.5, 497, 1, -0.5
*EQUATION
3
1797, 2, 1.0, 490, 2, -0.5, 497, 2, -0.5
*EQUATION
3
1797, 3, 1.0, 490, 3, -0.5, 497, 3, -0.5
*EQUATION
3
1799, 1, 1.0, 492, 1, -0.5, 498, 1, -0.5
*EQUATION
3
1799, 2, 1.0, 492, 2, -0.5, 498, 2, -0.5
*EQUATION
3
1799, 3, 1.0, 492, 3, -0.5, 498, 3, -0.5
*EQUATION
3
1835, 1, 1.0, 487, 1, -0.5, 489, 1, -0.5
*EQUATION
3
1835, 2, 1.0, 487, 2, -0.5, 489, 2, -0.5
*EQUATION
3
1835, 3, 1.0, 487, 3, -0.5, 489, 3, -0.5
*EQUATION
5
1836, 1, 1.0, 487, 1, -0.25, 488, 1, -0.25, 490, 1, -0.25, 489, 1, -0.25
*EQUATION
5
1836, 2, 1.0, 487, 2, -0.25, 488, 2, -0.25, 490, 2, -0.25, 489, 2, -0.25
*EQUATION
5
1836, 3, 1.0, 487, 3, -0.25, 488, 3, -0.25, 490, 3, -0.25, 489, 3, -0.25
*EQUATION
3
1837, 1, 1.0, 488, 1, -0.5, 490, 1, -0.5
*EQUATION
3
1837, 2, 1.0, 488, 2, -0.5, 490, 2, -0.5
*EQUATION
3
1837, 3, 1.0, 488, 3, -0.5, 490, 3, -0.5
*EQUATION
3
1849, 1, 1.0, 491, 1, -0.5, 539, 1, -0.5
*EQUATION
3
1849, 2, 1.0, 491, 2, -0.5, 539, 2, -0.5
*EQUATION
3
1849, 3, 1.0, 491, 3, -0.5, 539, 3, -0.5
*EQUATION
5
1851, 1, 1.0, 491, 1, -0.25, 539, 1, -0.25, 540, 1, -0.25, 492, 1, -0.25
*EQUATION
5
1851, 2, 1.0, 491, 2, -0.25, 539, 2, -0.25, 540, 2, -0.25, 492, 2, -0.25
*EQUATION
5
1851, 3, 1.0, 491, 3, -0.25, 539, 3, -0.25, 540, 3, -0.25, 492, 3, -0.25
*EQUATION
3
1853, 1, 1.0, 492, 1, -0.5, 540, 1, -0.5
*EQUATION
3
1853, 2, 1.0, 492, 2, -0.5, 540, 2, -0.5
*EQUATION
3
1853, 3, 1.0, 492, 3, -0.5, 540, 3, -0.5
*EQUATION
3
1856, 1, 1.0, 539, 1, -0.5, 540, 1, -0.5
*EQUATION
3
1856, 2, 1.0, 539, 2, -0.5, 540, 2, -0.5
*EQUATION
3
1856, 3, 1.0, 539, 3, -0.5, 540, 3, -0.5
*EQUATION
5
1882, 1, 1.0, 488, 1, -0.25, 496, 1, -0.25, 497, 1, -0.25, 490, 1, -0.25
*EQUATION
5
1882, 2, 1.0, 488, 2, -0.25, 496, 2, -0.25, 497, 2, -0.25, 490, 2, -0.25
*EQUATION
5
1882, 3, 1.0, 488, 3, -0.25, 496, 3, -0.25, 497, 3, -0.25, 490, 3, -0.25
*EQUATION
3
1883, 1, 1.0, 496, 1, -0.5, 497, 1, -0.5
*EQUATION
3
1883, 2, 1.0, 496, 2, -0.5, 497, 2, -0.5
*EQUATION
3
1883, 3, 1.0, 496, 3, -0.5, 497, 3, -0.5
*EQUATION
5
1892, 1, 1.0, 492, 1, -0.25, 540, 1, -0.25, 546, 1, -0.25, 498, 1, -0.25
*EQUATION
5
1892, 2, 1.0, 492, 2, -0.25, 540, 2, -0.25, 546, 2, -0.25, 498, 2, -0.25
*EQUATION
5
1892, 3, 1.0, 492, 3, -0.25, 540, 3, -0.25, 546, 3, -0.25, 498, 3, -0.25
*EQUATION
3
1894, 1, 1.0, 498, 1, -0.5, 546, 1, -0.5
*EQUATION
3
1894, 2, 1.0, 498, 2, -0.5, 546, 2, -0.5
*EQUATION
3
1894, 3, 1.0, 498, 3, -0.5, 546, 3, -0.5
*EQUATION
3
1896, 1, 1.0, 540, 1, -0.5, 546, 1, -0.5
*EQUATION
3
1896, 2, 1.0, 540, 2, -0.5, 546, 2, -0.5
*EQUATION
3
1896, 3, 1.0, 540, 3, -0.5, 546, 3, -0.5
*EQUATION
3
1942, 1, 1.0, 539, 1, -0.5, 587, 1, -0.5
*EQUATION
3
1942, 2, 1.0, 539, 2, -0.5, 587, 2, -0.5
*EQUATION
3
1942, 3, 1.0, 539, 3, -0.5, 587, 3, -0.5
*EQUATION
5
1944, 1, 1.0, 539, 1, -0.25, 587, 1, -0.25, 588, 1, -0.25, 540, 1, -0.25
*EQUATION
5
1944, 2, 1.0, 539, 2, -0.25, 587, 2, -0.25, 588, 2, -0.25, 540, 2, -0.25
*EQUATION
5
1944, 3, 1.0, 539, 3, -0.25, 587, 3, -0.25, 588, 3, -0.25, 540, 3, -0.25
*EQUATION
3
1946, 1, 1.0, 540, 1, -0.5, 588, 1, -0.5
*EQUATION
3
1946, 2, 1.0, 540, 2, -0.5, 588, 2, -0.5
*EQUATION
3
1946, 3, 1.0, 540, 3, -0.5, 588, 3, -0.5
*EQUATION
5
1978, 1, 1.0, 540, 1, -0.25, 588, 1, -0.25, 594, 1, -0.25, 546, 1, -0.25
*EQUATION
5
1978, 2, 1.0, 540, 2, -0.25, 588, 2, -0.25, 594, 2, -0.25, 546, 2, -0.25
*EQUATION
5
1978, 3, 1.0, 540, 3, -0.25, 588, 3, -0.25, 594, 3, -0.25, 546, 3, -0.25
*EQUATION
3
1980, 1, 1.0, 546, 1, -0.5, 594, 1, -0.5
*EQUATION
3
1980, 2, 1.0, 546, 2, -0.5, 594, 2, -0.5
*EQUATION
3
1980, 3, 1.0, 546, 3, -0.5, 594, 3, -0.5
*EQUATION
3
2035, 1, 1.0, 607, 1, -0.5, 608, 1, -0.5
*EQUATION
3
2035, 2, 1.0, 607, 2, -0.5, 608, 2, -0.5
*EQUATION
3
2035, 3, 1.0, 607, 3, -0.5, 608, 3, -0.5
*EQUATION
3
2036, 1, 1.0, 607, 1, -0.5, 609, 1, -0.5
*EQUATION
3
2036, 2, 1.0, 607, 2, -0.5, 609, 2, -0.5
*EQUATION
3
2036, 3, 1.0, 607, 3, -0.5, 609, 3, -0.5
*EQUATION
5
2037, 1, 1.0, 607, 1, -0.25, 609, 1, -0.25, 610, 1, -0.25, 608, 1, -0.25
*EQUATION
5
2037, 2, 1.0, 607, 2, -0.25, 609, 2, -0.25, 610, 2, -0.25, 608, 2, -0.25
*EQUATION
5
2037, 3, 1.0, 607, 3, -0.25, 609, 3, -0.25, 610, 3, -0.25, 608, 3, -0.25
*EQUATION
3
2038, 1, 1.0, 608, 1, -0.5, 610, 1, -0.5
*EQUATION
3
2038, 2, 1.0, 608, 2, -0.5, 610, 2, -0.5
*EQUATION
3
2038, 3, 1.0, 608, 3, -0.5, 610, 3, -0.5
*EQUATION
3
2039, 1, 1.0, 609, 1, -0.5, 610, 1, -0.5
*EQUATION
3
2039, 2, 1.0, 609, 2, -0.5, 610, 2, -0.5
*EQUATION
3
2039, 3, 1.0, 609, 3, -0.5, 610, 3, -0.5
*EQUATION
3
2040, 1, 1.0, 607, 1, -0.5, 655, 1, -0.5
*EQUATION
3
2040, 2, 1.0, 607, 2, -0.5, 655, 2, -0.5
*EQUATION
3
2040, 3, 1.0, 607, 3, -0.5, 655, 3, -0.5
*EQUATION
5
2041, 1, 1.0, 607, 1, -0.25, 655, 1, -0.25, 656, 1, -0.25, 608, 1, -0.25
*EQUATION
5
2041, 2, 1.0, 607, 2, -0.25, 655, 2, -0.25, 656, 2, -0.25, 608, 2, -0.25
*EQUATION
5
2041, 3, 1.0, 607, 3, -0.25, 655, 3, -0.25, 656, 3, -0.25, 608, 3, -0.25
*EQUATION
3
2042, 1, 1.0, 608, 1, -0.5, 656, 1, -0.5
*EQUATION
3
2042, 2, 1.0, 608, 2, -0.5, 656, 2, -0.5
*EQUATION
3
2042, 3, 1.0, 608, 3, -0.5, 656, 3, -0.5
*EQUATION
5
2043, 1, 1.0, 607, 1, -0.25, 655, 1, -0.25, 657, 1, -0.25, 609, 1, -0.25
*EQUATION
5
2043, 2, 1.0, 607, 2, -0.25, 655, 2, -0.25, 657, 2, -0.25, 609, 2, -0.25
*EQUATION
5
2043, 3, 1.0, 607, 3, -0.25, 655, 3, -0.25, 657, 3, -0.25, 609, 3, -0.25
*EQUATION
3
2046, 1, 1.0, 609, 1, -0.5, 657, 1, -0.5
*EQUATION
3
2046, 2, 1.0, 609, 2, -0.5, 657, 2, -0.5
*EQUATION
3
2046, 3, 1.0, 609, 3, -0.5, 657, 3, -0.5
*EQUATION
3
2049, 1, 1.0, 655, 1, -0.5, 656, 1, -0.5
*EQUATION
3
2049, 2, 1.0, 655, 2, -0.5, 656, 2, -0.5
*EQUATION
3
2049, 3, 1.0, 655, 3, -0.5, 656, 3, -0.5
*EQUATION
3
2050, 1, 1.0, 655, 1, -0.5, 657, 1, -0.5
*EQUATION
3
2050, 2, 1.0, 655, 2, -0.5, 657, 2, -0.5
*EQUATION
3
2050, 3, 1.0, 655, 3, -0.5, 657, 3, -0.5
*EQUATION
3
2054, 1, 1.0, 609, 1, -0.5, 611, 1, -0.5
*EQUATION
3
2054, 2, 1.0, 609, 2, -0.5, 611, 2, -0.5
*EQUATION
3
2054, 3, 1.0, 609, 3, -0.5, 611, 3, -0.5
*EQUATION
5
2055, 1, 1.0, 609, 1, -0.25, 611, 1, -0.25, 612, 1, -0.25, 610, 1, -0.25
*EQUATION
5
2055, 2, 1.0, 609, 2, -0.25, 611, 2, -0.25, 612, 2, -0.25, 610, 2, -0.25
*EQUATION
5
2055, 3, 1.0, 609, 3, -0.25, 611, 3, -0.25, 612, 3, -0.25, 610, 3, -0.25
*EQUATION
3
2056, 1, 1.0, 610, 1, -0.5, 612, 1, -0.5
*EQUATION
3
2056, 2, 1.0, 610, 2, -0.5, 612, 2, -0.5
*EQUATION
3
2056, 3, 1.0, 610, 3, -0.5, 612, 3, -0.5
*EQUATION
3
2057, 1, 1.0, 611, 1, -0.5, 612, 1, -0.5
*EQUATION
3
2057, 2, 1.0, 611, 2, -0.5, 612, 2, -0.5
*EQUATION
3
2057, 3, 1.0, 611, 3, -0.5, 612, 3, -0.5
*EQUATION
5
2058, 1, 1.0, 609, 1, -0.25, 657, 1, -0.25, 659, 1, -0.25, 611, 1, -0.25
*EQUATION
5
2058, 2, 1.0, 609, 2, -0.25, 657, 2, -0.25, 659, 2, -0.25, 611, 2, -0.25
*EQUATION
5
2058, 3, 1.0, 609, 3, -0.25, 657, 3, -0.25, 659, 3, -0.25, 611, 3, -0.25
*EQUATION
3
2061, 1, 1.0, 611, 1, -0.5, 659, 1, -0.5
*EQUATION
3
2061, 2, 1.0, 611, 2, -0.5, 659, 2, -0.5
*EQUATION
3
2061, 3, 1.0, 611, 3, -0.5, 659, 3, -0.5
*EQUATION
5
2062, 1, 1.0, 611, 1, -0.25, 659, 1, -0.25, 660, 1, -0.25, 612, 1, -0.25
*EQUATION
5
2062, 2, 1.0, 611, 2, -0.25, 659, 2, -0.25, 660, 2, -0.25, 612, 2, -0.25
*EQUATION
5
2062, 3, 1.0, 611, 3, -0.25, 659, 3, -0.25, 660, 3, -0.25, 612, 3, -0.25
*EQUATION
3
2063, 1, 1.0, 612, 1, -0.5, 660, 1, -0.5
*EQUATION
3
2063, 2, 1.0, 612, 2, -0.5, 660, 2, -0.5
*EQUATION
3
2063, 3, 1.0, 612, 3, -0.5, 660, 3, -0.5
*EQUATION
3
2064, 1, 1.0, 657, 1, -0.5, 659, 1, -0.5
*EQUATION
3
2064, 2, 1.0, 657, 2, -0.5, 659, 2, -0.5
*EQUATION
3
2064, 3, 1.0, 657, 3, -0.5, 659, 3, -0.5
*EQUATION
3
2067, 1, 1.0, 659, 1, -0.5, 660, 1, -0.5
*EQUATION
3
2067, 2, 1.0, 659, 2, -0.5, 660, 2, -0.5
*EQUATION
3
2067, 3, 1.0, 659, 3, -0.5, 660, 3, -0.5
*EQUATION
3
2084, 1, 1.0, 635, 1, -0.5, 655, 1, -0.5
*EQUATION
3
2084, 2, 1.0, 635, 2, -0.5, 655, 2, -0.5
*EQUATION
3
2084, 3, 1.0, 635, 3, -0.5, 655, 3, -0.5
*EQUATION
5
2085, 1, 1.0, 635, 1, -0.25, 636, 1, -0.25, 657, 1, -0.25, 655, 1, -0.25
*EQUATION
5
2085, 2, 1.0, 635, 2, -0.25, 636, 2, -0.25, 657, 2, -0.25, 655, 2, -0.25
*EQUATION
5
2085, 3, 1.0, 635, 3, -0.25, 636, 3, -0.25, 657, 3, -0.25, 655, 3, -0.25
*EQUATION
3
2086, 1, 1.0, 636, 1, -0.5, 657, 1, -0.5
*EQUATION
3
2086, 2, 1.0, 636, 2, -0.5, 657, 2, -0.5
*EQUATION
3
2086, 3, 1.0, 636, 3, -0.5, 657, 3, -0.5
*EQUATION
5
2087, 1, 1.0, 635, 1, -0.25, 683, 1, -0.25, 703, 1, -0.25, 655, 1, -0.25
*EQUATION
5
2087, 2, 1.0, 635, 2, -0.25, 683, 2, -0.25, 703, 2, -0.25, 655, 2, -0.25
*EQUATION
5
2087, 3, 1.0, 635, 3, -0.25, 683, 3, -0.25, 703, 3, -0.25, 655, 3, -0.25
*EQUATION
3
2088, 1, 1.0, 655, 1, -0.5, 703, 1, -0.5
*EQUATION
3
2088, 2, 1.0, 655, 2, -0.5, 703, 2, -0.5
*EQUATION
3
2088, 3, 1.0, 655, 3, -0.5, 703, 3, -0.5
*EQUATION
3
2093, 1, 1.0, 683, 1, -0.5, 703, 1, -0.5
*EQUATION
3
2093, 2, 1.0, 683, 2, -0.5, 703, 2, -0.5
*EQUATION
3
2093, 3, 1.0, 683, 3, -0.5, 703, 3, -0.5
*EQUATION
5
2097, 1, 1.0, 655, 1, -0.25, 703, 1, -0.25, 704, 1, -0.25, 656, 1, -0.25
*EQUATION
5
2097, 2, 1.0, 655, 2, -0.25, 703, 2, -0.25, 704, 2, -0.25, 656, 2, -0.25
*EQUATION
5
2097, 3, 1.0, 655, 3, -0.25, 703, 3, -0.25, 704, 3, -0.25, 656, 3, -0.25
*EQUATION
3
2098, 1, 1.0, 656, 1, -0.5, 704, 1, -0.5
*EQUATION
3
2098, 2, 1.0, 656, 2, -0.5, 704, 2, -0.5
*EQUATION
3
2098, 3, 1.0, 656, 3, -0.5, 704, 3, -0.5
*EQUATION
3
2103, 1, 1.0, 703, 1, -0.5, 704, 1, -0.5
*EQUATION
3
2103, 2, 1.0, 703, 2, -0.5, 704, 2, -0.5
*EQUATION
3
2103, 3, 1.0, 703, 3, -0.5, 704, 3, -0.5
*EQUATION
5
2107, 1, 1.0, 636, 1, -0.25, 642, 1, -0.25, 659, 1, -0.25, 657, 1, -0.25
*EQUATION
5
2107, 2, 1.0, 636, 2, -0.25, 642, 2, -0.25, 659, 2, -0.25, 657, 2, -0.25
*EQUATION
5
2107, 3, 1.0, 636, 3, -0.25, 642, 3, -0.25, 659, 3, -0.25, 657, 3, -0.25
*EQUATION
3
2108, 1, 1.0, 642, 1, -0.5, 659, 1, -0.5
*EQUATION
3
2108, 2, 1.0, 642, 2, -0.5, 659, 2, -0.5
*EQUATION
3
2108, 3, 1.0, 642, 3, -0.5, 659, 3, -0.5
*EQUATION
5
2111, 1, 1.0, 642, 1, -0.25, 690, 1, -0.25, 707, 1, -0.25, 659, 1, -0.25
*EQUATION
5
2111, 2, 1.0, 642, 2, -0.25, 690, 2, -0.25, 707, 2, -0.25, 659, 2, -0.25
*EQUATION
5
2111, 3, 1.0, 642, 3, -0.25, 690, 3, -0.25, 707, 3, -0.25, 659, 3, -0.25
*EQUATION
3
2112, 1, 1.0, 659, 1, -0.5, 707, 1, -0.5
*EQUATION
3
2112, 2, 1.0, 659, 2, -0.5, 707, 2, -0.5
*EQUATION
3
2112, 3, 1.0, 659, 3, -0.5, 707, 3, -0.5
*EQUATION
3
2115, 1, 1.0, 690, 1, -0.5, 707, 1, -0.5
*EQUATION
3
2115, 2, 1.0, 690, 2, -0.5, 707, 2, -0.5
*EQUATION
3
2115, 3, 1.0, 690, 3, -0.5, 707, 3, -0.5
*EQUATION
5
2118, 1, 1.0, 659, 1, -0.25, 707, 1, -0.25, 708, 1, -0.25, 660, 1, -0.25
*EQUATION
5
2118, 2, 1.0, 659, 2, -0.25, 707, 2, -0.25, 708, 2, -0.25, 660, 2, -0.25
*EQUATION
5
2118, 3, 1.0, 659, 3, -0.25, 707, 3, -0.25, 708, 3, -0.25, 660, 3, -0.25
*EQUATION
3
2119, 1, 1.0, 660, 1, -0.5, 708, 1, -0.5
*EQUATION
3
2119, 2, 1.0, 660, 2, -0.5, 708, 2, -0.5
*EQUATION
3
2119, 3, 1.0, 660, 3, -0.5, 708, 3, -0.5
*EQUATION
3
2122, 1, 1.0, 707, 1, -0.5, 708, 1, -0.5
*EQUATION
3
2122, 2, 1.0, 707, 2, -0.5, 708, 2, -0.5
*EQUATION
3
2122, 3, 1.0, 707, 3, -0.5, 708, 3, -0.5
*EQUATION
5
2123, 1, 1.0, 683, 1, -0.25, 731, 1, -0.25, 751, 1, -0.25, 703, 1, -0.25
*EQUATION
5
2123, 2, 1.0, 683, 2, -0.25, 731, 2, -0.25, 751, 2, -0.25, 703, 2, -0.25
*EQUATION
5
2123, 3, 1.0, 683, 3, -0.25, 731, 3, -0.25, 751, 3, -0.25, 703, 3, -0.25
*EQUATION
3
2124, 1, 1.0, 703, 1, -0.5, 751, 1, -0.5
*EQUATION
3
2124, 2, 1.0, 703, 2, -0.5, 751, 2, -0.5
*EQUATION
3
2124, 3, 1.0, 703, 3, -0.5, 751, 3, -0.5
*EQUATION
3
2129, 1, 1.0, 731, 1, -0.5, 751, 1, -0.5
*EQUATION
3
2129, 2, 1.0, 731, 2, -0.5, 751, 2, -0.5
*EQUATION
3
2129, 3, 1.0, 731, 3, -0.5, 751, 3, -0.5
*EQUATION
5
2133, 1, 1.0, 703, 1, -0.25, 751, 1, -0.25, 752, 1, -0.25, 704, 1, -0.25
*EQUATION
5
2133, 2, 1.0, 703, 2, -0.25, 751, 2, -0.25, 752, 2, -0.25, 704, 2, -0.25
*EQUATION
5
2133, 3, 1.0, 703, 3, -0.25, 751, 3, -0.25, 752, 3, -0.25, 704, 3, -0.25
*EQUATION
3
2134, 1, 1.0, 704, 1, -0.5, 752, 1, -0.5
*EQUATION
3
2134, 2, 1.0, 704, 2, -0.5, 752, 2, -0.5
*EQUATION
3
2134, 3, 1.0, 704, 3, -0.5, 752, 3, -0.5
*EQUATION
3
2139, 1, 1.0, 751, 1, -0.5, 752, 1, -0.5
*EQUATION
3
2139, 2, 1.0, 751, 2, -0.5, 752, 2, -0.5
*EQUATION
3
2139, 3, 1.0, 751, 3, -0.5, 752, 3, -0.5
*EQUATION
5
2145, 1, 1.0, 690, 1, -0.25, 738, 1, -0.25, 755, 1, -0.25, 707, 1, -0.25
*EQUATION
5
2145, 2, 1.0, 690, 2, -0.25, 738, 2, -0.25, 755, 2, -0.25, 707, 2, -0.25
*EQUATION
5
2145, 3, 1.0, 690, 3, -0.25, 738, 3, -0.25, 755, 3, -0.25, 707, 3, -0.25
*EQUATION
3
2146, 1, 1.0, 707, 1, -0.5, 755, 1, -0.5
*EQUATION
3
2146, 2, 1.0, 707, 2, -0.5, 755, 2, -0.5
*EQUATION
3
2146, 3, 1.0, 707, 3, -0.5, 755, 3, -0.5
*EQUATION
3
2149, 1, 1.0, 738, 1, -0.5, 755, 1, -0.5
*EQUATION
3
2149, 2, 1.0, 738, 2, -0.5, 755, 2, -0.5
*EQUATION
3
2149, 3, 1.0, 738, 3, -0.5, 755, 3, -0.5
*EQUATION
5
2152, 1, 1.0, 707, 1, -0.25, 755, 1, -0.25, 756, 1, -0.25, 708, 1, -0.25
*EQUATION
5
2152, 2, 1.0, 707, 2, -0.25, 755, 2, -0.25, 756, 2, -0.25, 708, 2, -0.25
*EQUATION
5
2152, 3, 1.0, 707, 3, -0.25, 755, 3, -0.25, 756, 3, -0.25, 708, 3, -0.25
*EQUATION
3
2153, 1, 1.0, 708, 1, -0.5, 756, 1, -0.5
*EQUATION
3
2153, 2, 1.0, 708, 2, -0.5, 756, 2, -0.5
*EQUATION
3
2153, 3, 1.0, 708, 3, -0.5, 756, 3, -0.5
*EQUATION
3
2156, 1, 1.0, 755, 1, -0.5, 756, 1, -0.5
*EQUATION
3
2156, 2, 1.0, 755, 2, -0.5, 756, 2, -0.5
*EQUATION
3
2156, 3, 1.0, 755, 3, -0.5, 756, 3, -0.5
*EQUATION
5
2157, 1, 1.0, 731, 1, -0.25, 779, 1, -0.25, 799, 1, -0.25, 751, 1, -0.25
*EQUATION
5
2157, 2, 1.0, 731, 2, -0.25, 779, 2, -0.25, 799, 2, -0.25, 751, 2, -0.25
*EQUATION
5
2157, 3, 1.0, 731, 3, -0.25, 779, 3, -0.25, 799, 3, -0.25, 751, 3, -0.25
*EQUATION
3
2158, 1, 1.0, 751, 1, -0.5, 799, 1, -0.5
*EQUATION
3
2158, 2, 1.0, 751, 2, -0.5, 799, 2, -0.5
*EQUATION
3
2158, 3, 1.0, 751, 3, -0.5, 799, 3, -0.5
*EQUATION
5
2163, 1, 1.0, 751, 1, -0.25, 799, 1, -0.25, 800, 1, -0.25, 752, 1, -0.25
*EQUATION
5
2163, 2, 1.0, 751, 2, -0.25, 799, 2, -0.25, 800, 2, -0.25, 752, 2, -0.25
*EQUATION
5
2163, 3, 1.0, 751, 3, -0.25, 799, 3, -0.25, 800, 3, -0.25, 752, 3, -0.25
*EQUATION
3
2164, 1, 1.0, 752, 1, -0.5, 800, 1, -0.5
*EQUATION
3
2164, 2, 1.0, 752, 2, -0.5, 800, 2, -0.5
*EQUATION
3
2164, 3, 1.0, 752, 3, -0.5, 800, 3, -0.5
*EQUATION
5
2171, 1, 1.0, 738, 1, -0.25, 786, 1, -0.25, 803, 1, -0.25, 755, 1, -0.25
*EQUATION
5
2171, 2, 1.0, 738, 2, -0.25, 786, 2, -0.25, 803, 2, -0.25, 755, 2, -0.25
*EQUATION
5
2171, 3, 1.0, 738, 3, -0.25, 786, 3, -0.25, 803, 3, -0.25, 755, 3, -0.25
*EQUATION
3
2172, 1, 1.0, 755, 1, -0.5, 803, 1, -0.5
*EQUATION
3
2172, 2, 1.0, 755, 2, -0.5, 803, 2, -0.5
*EQUATION
3
2172, 3, 1.0, 755, 3, -0.5, 803, 3, -0.5
*EQUATION
5
2175, 1, 1.0, 755, 1, -0.25, 803, 1, -0.25, 804, 1, -0.25, 756, 1, -0.25
*EQUATION
5
2175, 2, 1.0, 755, 2, -0.25, 803, 2, -0.25, 804, 2, -0.25, 756, 2, -0.25
*EQUATION
5
2175, 3, 1.0, 755, 3, -0.25, 803, 3, -0.25, 804, 3, -0.25, 756, 3, -0.25
*EQUATION
3
2176, 1, 1.0, 756, 1, -0.5, 804, 1, -0.5
*EQUATION
3
2176, 2, 1.0, 756, 2, -0.5, 804, 2, -0.5
*EQUATION
3
2176, 3, 1.0, 756, 3, -0.5, 804, 3, -0.5
*BOUNDARY
CLAMP, 1, 3, 0.0
*STEP
*STATIC
*CLOAD
887, 3, -384.615384615
888, 3, -384.615384615
891, 3, -384.615384615
894, 3, -384.615384615
896, 3, -384.615384615
898, 3, -384.615384615
900, 3, -384.615384615
903, 3, -384.615384615
906, 3, -384.615384615
909, 3, -384.615384615
912, 3, -384.615384615
1503, 3, -384.615384615
1517, 3, -384.615384615
*NODE FILE
U
*EL FILE
S, ENER
*NODE PRINT, NSET=TIP_TOP
U
*NODE PRINT, NSET=CLAMP
RF
*EL PRINT, ELSET=EALL
ELSE
*ENERGY PRINT
*END STEP
