*HEADING
T06 S-LIN hanging 8-split zz cycle 1
units: mm, N, s, MPa. Material is illustrative steel, not a coupon card.
E=210000.0 nu=0.3. load -5000.0 N on TIP_TOP.
*NODE, NSET=NALL
1, 0, -10, 0
2, 111.111111111, -10, 0
3, 111.111111111, 0, 0
4, 0, 0, 0
5, 0, -10, 28
6, 111.111111111, -10, 28
7, 111.111111111, 0, 28
8, 0, 0, 28
9, 0, -10, 56
10, 111.111111111, -10, 56
11, 111.111111111, 0, 56
12, 0, 0, 56
13, 0, -10, 84
14, 111.111111111, -10, 84
15, 111.111111111, 0, 84
16, 0, 0, 84
17, 0, -10, 112
18, 111.111111111, -10, 112
19, 111.111111111, 0, 112
20, 0, 0, 112
** ... 1571 like lines cut
*ELEMENT, TYPE=C3D8, ELSET=EALL
1, 1, 2, 3, 4, 5, 6, 7, 8
2, 5, 6, 7, 8, 9, 10, 11, 12
3, 9, 10, 11, 12, 13, 14, 15, 16
4, 13, 14, 15, 16, 17, 18, 19, 20
5, 17, 18, 19, 20, 21, 22, 23, 24
6, 4, 3, 25, 26, 8, 7, 27, 28
7, 8, 7, 27, 28, 12, 11, 29, 30
8, 12, 11, 29, 30, 16, 15, 31, 32
9, 16, 15, 31, 32, 20, 19, 33, 34
10, 20, 19, 33, 34, 24, 23, 35, 36
11, 37, 38, 39, 40, 41, 42, 43, 44
12, 41, 42, 43, 44, 45, 46, 47, 48
13, 40, 39, 49, 50, 44, 43, 51, 52
14, 44, 43, 51, 52, 48, 47, 53, 54
15, 50, 49, 55, 56, 52, 51, 57, 58
16, 52, 51, 57, 58, 54, 53, 59, 60
17, 56, 55, 22, 21, 58, 57, 61, 62
18, 58, 57, 61, 62, 60, 59, 63, 64
19, 21, 22, 23, 24, 62, 61, 65, 66
20, 62, 61, 65, 66, 64, 63, 67, 68
** ... 961 like lines cut
*NSET, NSET=CLAMP
1, 4, 5, 8, 9, 12, 13, 16, 17, 20, 21, 24, 26, 28, 30, 32
34, 36, 37, 40, 41, 44, 45, 48, 50, 52, 54, 56, 58, 60, 62, 64
66, 68, 70, 72, 74, 76, 78, 80, 82, 84, 86, 88, 90, 92, 94, 96
*NSET, NSET=TIP_TOP
887, 888, 891, 894, 896, 898, 900, 903, 906, 909, 912, 1478, 1495, 1512, 1522, 1536
1556, 1573, 1590
*MATERIAL, NAME=STEEL
*ELASTIC
210000, 0.3
*SOLID SECTION, ELSET=EALL, MATERIAL=STEEL
*EQUATION
3
913, 1, 1.0, 643, 1, -0.5, 645, 1, -0.5
*EQUATION
3
913, 2, 1.0, 643, 2, -0.5, 645, 2, -0.5
*EQUATION
3
913, 3, 1.0, 643, 3, -0.5, 645, 3, -0.5
*EQUATION
3
914, 1, 1.0, 643, 1, -0.5, 644, 1, -0.5
*EQUATION
3
914, 2, 1.0, 643, 2, -0.5, 644, 2, -0.5
*EQUATION
3
914, 3, 1.0, 643, 3, -0.5, 644, 3, -0.5
*EQUATION
5
915, 1, 1.0, 643, 1, -0.25, 644, 1, -0.25, 646, 1, -0.25, 645, 1, -0.25
*EQUATION
5
915, 2, 1.0, 643, 2, -0.25, 644, 2, -0.25, 646, 2, -0.25, 645, 2, -0.25
*EQUATION
5
915, 3, 1.0, 643, 3, -0.25, 644, 3, -0.25, 646, 3, -0.25, 645, 3, -0.25
*EQUATION
3
916, 1, 1.0, 645, 1, -0.5, 646, 1, -0.5
*EQUATION
3
916, 2, 1.0, 645, 2, -0.5, 646, 2, -0.5
*EQUATION
3
916, 3, 1.0, 645, 3, -0.5, 646, 3, -0.5
*EQUATION
3
917, 1, 1.0, 644, 1, -0.5, 646, 1, -0.5
*EQUATION
3
917, 2, 1.0, 644, 2, -0.5, 646, 2, -0.5
*EQUATION
3
917, 3, 1.0, 644, 3, -0.5, 646, 3, -0.5
*EQUATION
3
920, 1, 1.0, 645, 1, -0.5, 693, 1, -0.5
*EQUATION
3
920, 2, 1.0, 645, 2, -0.5, 693, 2, -0.5
*EQUATION
3
920, 3, 1.0, 645, 3, -0.5, 693, 3, -0.5
*EQUATION
5
923, 1, 1.0, 645, 1, -0.25, 693, 1, -0.25, 694, 1, -0.25, 646, 1, -0.25
*EQUATION
5
923, 2, 1.0, 645, 2, -0.25, 693, 2, -0.25, 694, 2, -0.25, 646, 2, -0.25
*EQUATION
5
923, 3, 1.0, 645, 3, -0.25, 693, 3, -0.25, 694, 3, -0.25, 646, 3, -0.25
*EQUATION
3
926, 1, 1.0, 646, 1, -0.5, 694, 1, -0.5
*EQUATION
3
926, 2, 1.0, 646, 2, -0.5, 694, 2, -0.5
*EQUATION
3
926, 3, 1.0, 646, 3, -0.5, 694, 3, -0.5
*EQUATION
3
930, 1, 1.0, 693, 1, -0.5, 694, 1, -0.5
*EQUATION
3
930, 2, 1.0, 693, 2, -0.5, 694, 2, -0.5
*EQUATION
3
930, 3, 1.0, 693, 3, -0.5, 694, 3, -0.5
*EQUATION
3
932, 1, 1.0, 644, 1, -0.5, 649, 1, -0.5
*EQUATION
3
932, 2, 1.0, 644, 2, -0.5, 649, 2, -0.5
*EQUATION
3
932, 3, 1.0, 644, 3, -0.5, 649, 3, -0.5
*EQUATION
5
933, 1, 1.0, 644, 1, -0.25, 649, 1, -0.25, 650, 1, -0.25, 646, 1, -0.25
*EQUATION
5
933, 2, 1.0, 644, 2, -0.25, 649, 2, -0.25, 650, 2, -0.25, 646, 2, -0.25
*EQUATION
5
933, 3, 1.0, 644, 3, -0.25, 649, 3, -0.25, 650, 3, -0.25, 646, 3, -0.25
*EQUATION
3
934, 1, 1.0, 646, 1, -0.5, 650, 1, -0.5
*EQUATION
3
934, 2, 1.0, 646, 2, -0.5, 650, 2, -0.5
*EQUATION
3
934, 3, 1.0, 646, 3, -0.5, 650, 3, -0.5
*EQUATION
3
935, 1, 1.0, 649, 1, -0.5, 650, 1, -0.5
*EQUATION
3
935, 2, 1.0, 649, 2, -0.5, 650, 2, -0.5
*EQUATION
3
935, 3, 1.0, 649, 3, -0.5, 650, 3, -0.5
*EQUATION
5
938, 1, 1.0, 646, 1, -0.25, 694, 1, -0.25, 698, 1, -0.25, 650, 1, -0.25
*EQUATION
5
938, 2, 1.0, 646, 2, -0.25, 694, 2, -0.25, 698, 2, -0.25, 650, 2, -0.25
*EQUATION
5
938, 3, 1.0, 646, 3, -0.25, 694, 3, -0.25, 698, 3, -0.25, 650, 3, -0.25
*EQUATION
3
941, 1, 1.0, 650, 1, -0.5, 698, 1, -0.5
*EQUATION
3
941, 2, 1.0, 650, 2, -0.5, 698, 2, -0.5
*EQUATION
3
941, 3, 1.0, 650, 3, -0.5, 698, 3, -0.5
*EQUATION
3
944, 1, 1.0, 694, 1, -0.5, 698, 1, -0.5
*EQUATION
3
944, 2, 1.0, 694, 2, -0.5, 698, 2, -0.5
*EQUATION
3
944, 3, 1.0, 694, 3, -0.5, 698, 3, -0.5
*EQUATION
3
946, 1, 1.0, 649, 1, -0.5, 652, 1, -0.5
*EQUATION
3
946, 2, 1.0, 649, 2, -0.5, 652, 2, -0.5
*EQUATION
3
946, 3, 1.0, 649, 3, -0.5, 652, 3, -0.5
*EQUATION
5
947, 1, 1.0, 649, 1, -0.25, 652, 1, -0.25, 653, 1, -0.25, 650, 1, -0.25
*EQUATION
5
947, 2, 1.0, 649, 2, -0.25, 652, 2, -0.25, 653, 2, -0.25, 650, 2, -0.25
*EQUATION
5
947, 3, 1.0, 649, 3, -0.25, 652, 3, -0.25, 653, 3, -0.25, 650, 3, -0.25
*EQUATION
3
948, 1, 1.0, 650, 1, -0.5, 653, 1, -0.5
*EQUATION
3
948, 2, 1.0, 650, 2, -0.5, 653, 2, -0.5
*EQUATION
3
948, 3, 1.0, 650, 3, -0.5, 653, 3, -0.5
*EQUATION
3
949, 1, 1.0, 652, 1, -0.5, 653, 1, -0.5
*EQUATION
3
949, 2, 1.0, 652, 2, -0.5, 653, 2, -0.5
*EQUATION
3
949, 3, 1.0, 652, 3, -0.5, 653, 3, -0.5
*EQUATION
5
952, 1, 1.0, 650, 1, -0.25, 698, 1, -0.25, 701, 1, -0.25, 653, 1, -0.25
*EQUATION
5
952, 2, 1.0, 650, 2, -0.25, 698, 2, -0.25, 701, 2, -0.25, 653, 2, -0.25
*EQUATION
5
952, 3, 1.0, 650, 3, -0.25, 698, 3, -0.25, 701, 3, -0.25, 653, 3, -0.25
*EQUATION
3
953, 1, 1.0, 652, 1, -0.5, 700, 1, -0.5
*EQUATION
3
953, 2, 1.0, 652, 2, -0.5, 700, 2, -0.5
*EQUATION
3
953, 3, 1.0, 652, 3, -0.5, 700, 3, -0.5
*EQUATION
5
954, 1, 1.0, 652, 1, -0.25, 700, 1, -0.25, 701, 1, -0.25, 653, 1, -0.25
*EQUATION
5
954, 2, 1.0, 652, 2, -0.25, 700, 2, -0.25, 701, 2, -0.25, 653, 2, -0.25
*EQUATION
5
954, 3, 1.0, 652, 3, -0.25, 700, 3, -0.25, 701, 3, -0.25, 653, 3, -0.25
*EQUATION
3
955, 1, 1.0, 653, 1, -0.5, 701, 1, -0.5
*EQUATION
3
955, 2, 1.0, 653, 2, -0.5, 701, 2, -0.5
*EQUATION
3
955, 3, 1.0, 653, 3, -0.5, 701, 3, -0.5
*EQUATION
3
958, 1, 1.0, 698, 1, -0.5, 701, 1, -0.5
*EQUATION
3
958, 2, 1.0, 698, 2, -0.5, 701, 2, -0.5
*EQUATION
3
958, 3, 1.0, 698, 3, -0.5, 701, 3, -0.5
*EQUATION
3
959, 1, 1.0, 700, 1, -0.5, 701, 1, -0.5
*EQUATION
3
959, 2, 1.0, 700, 2, -0.5, 701, 2, -0.5
*EQUATION
3
959, 3, 1.0, 700, 3, -0.5, 701, 3, -0.5
*EQUATION
3
960, 1, 1.0, 653, 1, -0.5, 654, 1, -0.5
*EQUATION
3
960, 2, 1.0, 653, 2, -0.5, 654, 2, -0.5
*EQUATION
3
960, 3, 1.0, 653, 3, -0.5, 654, 3, -0.5
*EQUATION
3
961, 1, 1.0, 653, 1, -0.5, 655, 1, -0.5
*EQUATION
3
961, 2, 1.0, 653, 2, -0.5, 655, 2, -0.5
*EQUATION
3
961, 3, 1.0, 653, 3, -0.5, 655, 3, -0.5
*EQUATION
5
962, 1, 1.0, 653, 1, -0.25, 655, 1, -0.25, 656, 1, -0.25, 654, 1, -0.25
*EQUATION
5
962, 2, 1.0, 653, 2, -0.25, 655, 2, -0.25, 656, 2, -0.25, 654, 2, -0.25
*EQUATION
5
962, 3, 1.0, 653, 3, -0.25, 655, 3, -0.25, 656, 3, -0.25, 654, 3, -0.25
*EQUATION
3
963, 1, 1.0, 654, 1, -0.5, 656, 1, -0.5
*EQUATION
3
963, 2, 1.0, 654, 2, -0.5, 656, 2, -0.5
*EQUATION
3
963, 3, 1.0, 654, 3, -0.5, 656, 3, -0.5
*EQUATION
3
964, 1, 1.0, 655, 1, -0.5, 656, 1, -0.5
*EQUATION
3
964, 2, 1.0, 655, 2, -0.5, 656, 2, -0.5
*EQUATION
3
964, 3, 1.0, 655, 3, -0.5, 656, 3, -0.5
*EQUATION
5
965, 1, 1.0, 653, 1, -0.25, 701, 1, -0.25, 702, 1, -0.25, 654, 1, -0.25
*EQUATION
5
965, 2, 1.0, 653, 2, -0.25, 701, 2, -0.25, 702, 2, -0.25, 654, 2, -0.25
*EQUATION
5
965, 3, 1.0, 653, 3, -0.25, 701, 3, -0.25, 702, 3, -0.25, 654, 3, -0.25
*EQUATION
3
966, 1, 1.0, 654, 1, -0.5, 702, 1, -0.5
*EQUATION
3
966, 2, 1.0, 654, 2, -0.5, 702, 2, -0.5
*EQUATION
3
966, 3, 1.0, 654, 3, -0.5, 702, 3, -0.5
*EQUATION
5
967, 1, 1.0, 653, 1, -0.25, 701, 1, -0.25, 703, 1, -0.25, 655, 1, -0.25
*EQUATION
5
967, 2, 1.0, 653, 2, -0.25, 701, 2, -0.25, 703, 2, -0.25, 655, 2, -0.25
*EQUATION
5
967, 3, 1.0, 653, 3, -0.25, 701, 3, -0.25, 703, 3, -0.25, 655, 3, -0.25
*EQUATION
3
970, 1, 1.0, 655, 1, -0.5, 703, 1, -0.5
*EQUATION
3
970, 2, 1.0, 655, 2, -0.5, 703, 2, -0.5
*EQUATION
3
970, 3, 1.0, 655, 3, -0.5, 703, 3, -0.5
*EQUATION
5
971, 1, 1.0, 655, 1, -0.25, 703, 1, -0.25, 704, 1, -0.25, 656, 1, -0.25
*EQUATION
5
971, 2, 1.0, 655, 2, -0.25, 703, 2, -0.25, 704, 2, -0.25, 656, 2, -0.25
*EQUATION
5
971, 3, 1.0, 655, 3, -0.25, 703, 3, -0.25, 704, 3, -0.25, 656, 3, -0.25
*EQUATION
3
972, 1, 1.0, 656, 1, -0.5, 704, 1, -0.5
*EQUATION
3
972, 2, 1.0, 656, 2, -0.5, 704, 2, -0.5
*EQUATION
3
972, 3, 1.0, 656, 3, -0.5, 704, 3, -0.5
*EQUATION
3
973, 1, 1.0, 701, 1, -0.5, 702, 1, -0.5
*EQUATION
3
973, 2, 1.0, 701, 2, -0.5, 702, 2, -0.5
*EQUATION
3
973, 3, 1.0, 701, 3, -0.5, 702, 3, -0.5
*EQUATION
3
974, 1, 1.0, 701, 1, -0.5, 703, 1, -0.5
*EQUATION
3
974, 2, 1.0, 701, 2, -0.5, 703, 2, -0.5
*EQUATION
3
974, 3, 1.0, 701, 3, -0.5, 703, 3, -0.5
*EQUATION
3
977, 1, 1.0, 703, 1, -0.5, 704, 1, -0.5
*EQUATION
3
977, 2, 1.0, 703, 2, -0.5, 704, 2, -0.5
*EQUATION
3
977, 3, 1.0, 703, 3, -0.5, 704, 3, -0.5
*EQUATION
3
978, 1, 1.0, 661, 1, -0.5, 662, 1, -0.5
*EQUATION
3
978, 2, 1.0, 661, 2, -0.5, 662, 2, -0.5
*EQUATION
3
978, 3, 1.0, 661, 3, -0.5, 662, 3, -0.5
*EQUATION
3
979, 1, 1.0, 661, 1, -0.5, 664, 1, -0.5
*EQUATION
3
979, 2, 1.0, 661, 2, -0.5, 664, 2, -0.5
*EQUATION
3
979, 3, 1.0, 661, 3, -0.5, 664, 3, -0.5
*EQUATION
5
980, 1, 1.0, 661, 1, -0.25, 664, 1, -0.25, 665, 1, -0.25, 662, 1, -0.25
*EQUATION
5
980, 2, 1.0, 661, 2, -0.25, 664, 2, -0.25, 665, 2, -0.25, 662, 2, -0.25
*EQUATION
5
980, 3, 1.0, 661, 3, -0.25, 664, 3, -0.25, 665, 3, -0.25, 662, 3, -0.25
*EQUATION
3
981, 1, 1.0, 662, 1, -0.5, 665, 1, -0.5
*EQUATION
3
981, 2, 1.0, 662, 2, -0.5, 665, 2, -0.5
*EQUATION
3
981, 3, 1.0, 662, 3, -0.5, 665, 3, -0.5
*EQUATION
3
982, 1, 1.0, 664, 1, -0.5, 665, 1, -0.5
*EQUATION
3
982, 2, 1.0, 664, 2, -0.5, 665, 2, -0.5
*EQUATION
3
982, 3, 1.0, 664, 3, -0.5, 665, 3, -0.5
*EQUATION
3
983, 1, 1.0, 661, 1, -0.5, 709, 1, -0.5
*EQUATION
3
983, 2, 1.0, 661, 2, -0.5, 709, 2, -0.5
*EQUATION
3
983, 3, 1.0, 661, 3, -0.5, 709, 3, -0.5
*EQUATION
5
984, 1, 1.0, 661, 1, -0.25, 709, 1, -0.25, 710, 1, -0.25, 662, 1, -0.25
*EQUATION
5
984, 2, 1.0, 661, 2, -0.25, 709, 2, -0.25, 710, 2, -0.25, 662, 2, -0.25
*EQUATION
5
984, 3, 1.0, 661, 3, -0.25, 709, 3, -0.25, 710, 3, -0.25, 662, 3, -0.25
*EQUATION
3
985, 1, 1.0, 662, 1, -0.5, 710, 1, -0.5
*EQUATION
3
985, 2, 1.0, 662, 2, -0.5, 710, 2, -0.5
*EQUATION
3
985, 3, 1.0, 662, 3, -0.5, 710, 3, -0.5
*EQUATION
5
988, 1, 1.0, 662, 1, -0.25, 710, 1, -0.25, 713, 1, -0.25, 665, 1, -0.25
*EQUATION
5
988, 2, 1.0, 662, 2, -0.25, 710, 2, -0.25, 713, 2, -0.25, 665, 2, -0.25
*EQUATION
5
988, 3, 1.0, 662, 3, -0.25, 710, 3, -0.25, 713, 3, -0.25, 665, 3, -0.25
*EQUATION
3
991, 1, 1.0, 665, 1, -0.5, 713, 1, -0.5
*EQUATION
3
991, 2, 1.0, 665, 2, -0.5, 713, 2, -0.5
*EQUATION
3
991, 3, 1.0, 665, 3, -0.5, 713, 3, -0.5
*EQUATION
3
992, 1, 1.0, 709, 1, -0.5, 710, 1, -0.5
*EQUATION
3
992, 2, 1.0, 709, 2, -0.5, 710, 2, -0.5
*EQUATION
3
992, 3, 1.0, 709, 3, -0.5, 710, 3, -0.5
*EQUATION
3
995, 1, 1.0, 710, 1, -0.5, 713, 1, -0.5
*EQUATION
3
995, 2, 1.0, 710, 2, -0.5, 713, 2, -0.5
*EQUATION
3
995, 3, 1.0, 710, 3, -0.5, 713, 3, -0.5
*EQUATION
3
997, 1, 1.0, 664, 1, -0.5, 667, 1, -0.5
*EQUATION
3
997, 2, 1.0, 664, 2, -0.5, 667, 2, -0.5
*EQUATION
3
997, 3, 1.0, 664, 3, -0.5, 667, 3, -0.5
*EQUATION
5
998, 1, 1.0, 664, 1, -0.25, 667, 1, -0.25, 668, 1, -0.25, 665, 1, -0.25
*EQUATION
5
998, 2, 1.0, 664, 2, -0.25, 667, 2, -0.25, 668, 2, -0.25, 665, 2, -0.25
*EQUATION
5
998, 3, 1.0, 664, 3, -0.25, 667, 3, -0.25, 668, 3, -0.25, 665, 3, -0.25
*EQUATION
3
999, 1, 1.0, 665, 1, -0.5, 668, 1, -0.5
*EQUATION
3
999, 2, 1.0, 665, 2, -0.5, 668, 2, -0.5
*EQUATION
3
999, 3, 1.0, 665, 3, -0.5, 668, 3, -0.5
*EQUATION
3
1000, 1, 1.0, 667, 1, -0.5, 668, 1, -0.5
*EQUATION
3
1000, 2, 1.0, 667, 2, -0.5, 668, 2, -0.5
*EQUATION
3
1000, 3, 1.0, 667, 3, -0.5, 668, 3, -0.5
*EQUATION
5
1003, 1, 1.0, 665, 1, -0.25, 713, 1, -0.25, 716, 1, -0.25, 668, 1, -0.25
*EQUATION
5
1003, 2, 1.0, 665, 2, -0.25, 713, 2, -0.25, 716, 2, -0.25, 668, 2, -0.25
*EQUATION
5
1003, 3, 1.0, 665, 3, -0.25, 713, 3, -0.25, 716, 3, -0.25, 668, 3, -0.25
*EQUATION
3
1006, 1, 1.0, 668, 1, -0.5, 716, 1, -0.5
*EQUATION
3
1006, 2, 1.0, 668, 2, -0.5, 716, 2, -0.5
*EQUATION
3
1006, 3, 1.0, 668, 3, -0.5, 716, 3, -0.5
*EQUATION
3
1009, 1, 1.0, 713, 1, -0.5, 716, 1, -0.5
*EQUATION
3
1009, 2, 1.0, 713, 2, -0.5, 716, 2, -0.5
*EQUATION
3
1009, 3, 1.0, 713, 3, -0.5, 716, 3, -0.5
*EQUATION
3
1011, 1, 1.0, 667, 1, -0.5, 670, 1, -0.5
*EQUATION
3
1011, 2, 1.0, 667, 2, -0.5, 670, 2, -0.5
*EQUATION
3
1011, 3, 1.0, 667, 3, -0.5, 670, 3, -0.5
*EQUATION
5
1012, 1, 1.0, 667, 1, -0.25, 670, 1, -0.25, 671, 1, -0.25, 668, 1, -0.25
*EQUATION
5
1012, 2, 1.0, 667, 2, -0.25, 670, 2, -0.25, 671, 2, -0.25, 668, 2, -0.25
*EQUATION
5
1012, 3, 1.0, 667, 3, -0.25, 670, 3, -0.25, 671, 3, -0.25, 668, 3, -0.25
*EQUATION
3
1013, 1, 1.0, 668, 1, -0.5, 671, 1, -0.5
*EQUATION
3
1013, 2, 1.0, 668, 2, -0.5, 671, 2, -0.5
*EQUATION
3
1013, 3, 1.0, 668, 3, -0.5, 671, 3, -0.5
*EQUATION
3
1014, 1, 1.0, 670, 1, -0.5, 671, 1, -0.5
*EQUATION
3
1014, 2, 1.0, 670, 2, -0.5, 671, 2, -0.5
*EQUATION
3
1014, 3, 1.0, 670, 3, -0.5, 671, 3, -0.5
*EQUATION
5
1017, 1, 1.0, 668, 1, -0.25, 716, 1, -0.25, 719, 1, -0.25, 671, 1, -0.25
*EQUATION
5
1017, 2, 1.0, 668, 2, -0.25, 716, 2, -0.25, 719, 2, -0.25, 671, 2, -0.25
*EQUATION
5
1017, 3, 1.0, 668, 3, -0.25, 716, 3, -0.25, 719, 3, -0.25, 671, 3, -0.25
*EQUATION
3
1020, 1, 1.0, 671, 1, -0.5, 719, 1, -0.5
*EQUATION
3
1020, 2, 1.0, 671, 2, -0.5, 719, 2, -0.5
*EQUATION
3
1020, 3, 1.0, 671, 3, -0.5, 719, 3, -0.5
*EQUATION
3
1023, 1, 1.0, 716, 1, -0.5, 719, 1, -0.5
*EQUATION
3
1023, 2, 1.0, 716, 2, -0.5, 719, 2, -0.5
*EQUATION
3
1023, 3, 1.0, 716, 3, -0.5, 719, 3, -0.5
*EQUATION
3
1039, 1, 1.0, 693, 1, -0.5, 695, 1, -0.5
*EQUATION
3
1039, 2, 1.0, 693, 2, -0.5, 695, 2, -0.5
*EQUATION
3
1039, 3, 1.0, 693, 3, -0.5, 695, 3, -0.5
*EQUATION
5
1040, 1, 1.0, 693, 1, -0.25, 694, 1, -0.25, 696, 1, -0.25, 695, 1, -0.25
*EQUATION
5
1040, 2, 1.0, 693, 2, -0.25, 694, 2, -0.25, 696, 2, -0.25, 695, 2, -0.25
*EQUATION
5
1040, 3, 1.0, 693, 3, -0.25, 694, 3, -0.25, 696, 3, -0.25, 695, 3, -0.25
*EQUATION
3
1041, 1, 1.0, 695, 1, -0.5, 696, 1, -0.5
*EQUATION
3
1041, 2, 1.0, 695, 2, -0.5, 696, 2, -0.5
*EQUATION
3
1041, 3, 1.0, 695, 3, -0.5, 696, 3, -0.5
*EQUATION
3
1042, 1, 1.0, 694, 1, -0.5, 696, 1, -0.5
*EQUATION
3
1042, 2, 1.0, 694, 2, -0.5, 696, 2, -0.5
*EQUATION
3
1042, 3, 1.0, 694, 3, -0.5, 696, 3, -0.5
*EQUATION
5
1063, 1, 1.0, 694, 1, -0.25, 698, 1, -0.25, 699, 1, -0.25, 696, 1, -0.25
*EQUATION
5
1063, 2, 1.0, 694, 2, -0.25, 698, 2, -0.25, 699, 2, -0.25, 696, 2, -0.25
*EQUATION
5
1063, 3, 1.0, 694, 3, -0.25, 698, 3, -0.25, 699, 3, -0.25, 696, 3, -0.25
*EQUATION
3
1064, 1, 1.0, 696, 1, -0.5, 699, 1, -0.5
*EQUATION
3
1064, 2, 1.0, 696, 2, -0.5, 699, 2, -0.5
*EQUATION
3
1064, 3, 1.0, 696, 3, -0.5, 699, 3, -0.5
*EQUATION
3
1065, 1, 1.0, 698, 1, -0.5, 699, 1, -0.5
*EQUATION
3
1065, 2, 1.0, 698, 2, -0.5, 699, 2, -0.5
*EQUATION
3
1065, 3, 1.0, 698, 3, -0.5, 699, 3, -0.5
*EQUATION
3
1076, 1, 1.0, 700, 1, -0.5, 748, 1, -0.5
*EQUATION
3
1076, 2, 1.0, 700, 2, -0.5, 748, 2, -0.5
*EQUATION
3
1076, 3, 1.0, 700, 3, -0.5, 748, 3, -0.5
*EQUATION
5
1077, 1, 1.0, 700, 1, -0.25, 748, 1, -0.25, 749, 1, -0.25, 701, 1, -0.25
*EQUATION
5
1077, 2, 1.0, 700, 2, -0.25, 748, 2, -0.25, 749, 2, -0.25, 701, 2, -0.25
*EQUATION
5
1077, 3, 1.0, 700, 3, -0.25, 748, 3, -0.25, 749, 3, -0.25, 701, 3, -0.25
*EQUATION
3
1078, 1, 1.0, 701, 1, -0.5, 749, 1, -0.5
*EQUATION
3
1078, 2, 1.0, 701, 2, -0.5, 749, 2, -0.5
*EQUATION
3
1078, 3, 1.0, 701, 3, -0.5, 749, 3, -0.5
*EQUATION
3
1082, 1, 1.0, 748, 1, -0.5, 749, 1, -0.5
*EQUATION
3
1082, 2, 1.0, 748, 2, -0.5, 749, 2, -0.5
*EQUATION
3
1082, 3, 1.0, 748, 3, -0.5, 749, 3, -0.5
*EQUATION
5
1083, 1, 1.0, 698, 1, -0.25, 701, 1, -0.25, 702, 1, -0.25, 699, 1, -0.25
*EQUATION
5
1083, 2, 1.0, 698, 2, -0.25, 701, 2, -0.25, 702, 2, -0.25, 699, 2, -0.25
*EQUATION
5
1083, 3, 1.0, 698, 3, -0.25, 701, 3, -0.25, 702, 3, -0.25, 699, 3, -0.25
*EQUATION
3
1084, 1, 1.0, 699, 1, -0.5, 702, 1, -0.5
*EQUATION
3
1084, 2, 1.0, 699, 2, -0.5, 702, 2, -0.5
*EQUATION
3
1084, 3, 1.0, 699, 3, -0.5, 702, 3, -0.5
*EQUATION
5
1092, 1, 1.0, 701, 1, -0.25, 749, 1, -0.25, 751, 1, -0.25, 703, 1, -0.25
*EQUATION
5
1092, 2, 1.0, 701, 2, -0.25, 749, 2, -0.25, 751, 2, -0.25, 703, 2, -0.25
*EQUATION
5
1092, 3, 1.0, 701, 3, -0.25, 749, 3, -0.25, 751, 3, -0.25, 703, 3, -0.25
*EQUATION
3
1095, 1, 1.0, 703, 1, -0.5, 751, 1, -0.5
*EQUATION
3
1095, 2, 1.0, 703, 2, -0.5, 751, 2, -0.5
*EQUATION
3
1095, 3, 1.0, 703, 3, -0.5, 751, 3, -0.5
*EQUATION
5
1096, 1, 1.0, 703, 1, -0.25, 751, 1, -0.25, 752, 1, -0.25, 704, 1, -0.25
*EQUATION
5
1096, 2, 1.0, 703, 2, -0.25, 751, 2, -0.25, 752, 2, -0.25, 704, 2, -0.25
*EQUATION
5
1096, 3, 1.0, 703, 3, -0.25, 751, 3, -0.25, 752, 3, -0.25, 704, 3, -0.25
*EQUATION
3
1097, 1, 1.0, 704, 1, -0.5, 752, 1, -0.5
*EQUATION
3
1097, 2, 1.0, 704, 2, -0.5, 752, 2, -0.5
*EQUATION
3
1097, 3, 1.0, 704, 3, -0.5, 752, 3, -0.5
*EQUATION
3
1098, 1, 1.0, 749, 1, -0.5, 751, 1, -0.5
*EQUATION
3
1098, 2, 1.0, 749, 2, -0.5, 751, 2, -0.5
*EQUATION
3
1098, 3, 1.0, 749, 3, -0.5, 751, 3, -0.5
*EQUATION
3
1101, 1, 1.0, 751, 1, -0.5, 752, 1, -0.5
*EQUATION
3
1101, 2, 1.0, 751, 2, -0.5, 752, 2, -0.5
*EQUATION
3
1101, 3, 1.0, 751, 3, -0.5, 752, 3, -0.5
*EQUATION
3
1102, 1, 1.0, 707, 1, -0.5, 708, 1, -0.5
*EQUATION
3
1102, 2, 1.0, 707, 2, -0.5, 708, 2, -0.5
*EQUATION
3
1102, 3, 1.0, 707, 3, -0.5, 708, 3, -0.5
*EQUATION
3
1103, 1, 1.0, 707, 1, -0.5, 710, 1, -0.5
*EQUATION
3
1103, 2, 1.0, 707, 2, -0.5, 710, 2, -0.5
*EQUATION
3
1103, 3, 1.0, 707, 3, -0.5, 710, 3, -0.5
*EQUATION
5
1104, 1, 1.0, 707, 1, -0.25, 710, 1, -0.25, 711, 1, -0.25, 708, 1, -0.25
*EQUATION
5
1104, 2, 1.0, 707, 2, -0.25, 710, 2, -0.25, 711, 2, -0.25, 708, 2, -0.25
*EQUATION
5
1104, 3, 1.0, 707, 3, -0.25, 710, 3, -0.25, 711, 3, -0.25, 708, 3, -0.25
*EQUATION
3
1105, 1, 1.0, 708, 1, -0.5, 711, 1, -0.5
*EQUATION
3
1105, 2, 1.0, 708, 2, -0.5, 711, 2, -0.5
*EQUATION
3
1105, 3, 1.0, 708, 3, -0.5, 711, 3, -0.5
*EQUATION
3
1106, 1, 1.0, 710, 1, -0.5, 711, 1, -0.5
*EQUATION
3
1106, 2, 1.0, 710, 2, -0.5, 711, 2, -0.5
*EQUATION
3
1106, 3, 1.0, 710, 3, -0.5, 711, 3, -0.5
*EQUATION
3
1107, 1, 1.0, 707, 1, -0.5, 755, 1, -0.5
*EQUATION
3
1107, 2, 1.0, 707, 2, -0.5, 755, 2, -0.5
*EQUATION
3
1107, 3, 1.0, 707, 3, -0.5, 755, 3, -0.5
*EQUATION
5
1108, 1, 1.0, 707, 1, -0.25, 755, 1, -0.25, 756, 1, -0.25, 708, 1, -0.25
*EQUATION
5
1108, 2, 1.0, 707, 2, -0.25, 755, 2, -0.25, 756, 2, -0.25, 708, 2, -0.25
*EQUATION
5
1108, 3, 1.0, 707, 3, -0.25, 755, 3, -0.25, 756, 3, -0.25, 708, 3, -0.25
*EQUATION
3
1109, 1, 1.0, 708, 1, -0.5, 756, 1, -0.5
*EQUATION
3
1109, 2, 1.0, 708, 2, -0.5, 756, 2, -0.5
*EQUATION
3
1109, 3, 1.0, 708, 3, -0.5, 756, 3, -0.5
*EQUATION
5
1110, 1, 1.0, 707, 1, -0.25, 755, 1, -0.25, 758, 1, -0.25, 710, 1, -0.25
*EQUATION
5
1110, 2, 1.0, 707, 2, -0.25, 755, 2, -0.25, 758, 2, -0.25, 710, 2, -0.25
*EQUATION
5
1110, 3, 1.0, 707, 3, -0.25, 755, 3, -0.25, 758, 3, -0.25, 710, 3, -0.25
*EQUATION
3
1113, 1, 1.0, 710, 1, -0.5, 758, 1, -0.5
*EQUATION
3
1113, 2, 1.0, 710, 2, -0.5, 758, 2, -0.5
*EQUATION
3
1113, 3, 1.0, 710, 3, -0.5, 758, 3, -0.5
*EQUATION
3
1116, 1, 1.0, 755, 1, -0.5, 756, 1, -0.5
*EQUATION
3
1116, 2, 1.0, 755, 2, -0.5, 756, 2, -0.5
*EQUATION
3
1116, 3, 1.0, 755, 3, -0.5, 756, 3, -0.5
*EQUATION
3
1117, 1, 1.0, 755, 1, -0.5, 758, 1, -0.5
*EQUATION
3
1117, 2, 1.0, 755, 2, -0.5, 758, 2, -0.5
*EQUATION
3
1117, 3, 1.0, 755, 3, -0.5, 758, 3, -0.5
*EQUATION
3
1121, 1, 1.0, 709, 1, -0.5, 757, 1, -0.5
*EQUATION
3
1121, 2, 1.0, 709, 2, -0.5, 757, 2, -0.5
*EQUATION
3
1121, 3, 1.0, 709, 3, -0.5, 757, 3, -0.5
*EQUATION
5
1122, 1, 1.0, 709, 1, -0.25, 757, 1, -0.25, 758, 1, -0.25, 710, 1, -0.25
*EQUATION
5
1122, 2, 1.0, 709, 2, -0.25, 757, 2, -0.25, 758, 2, -0.25, 710, 2, -0.25
*EQUATION
5
1122, 3, 1.0, 709, 3, -0.25, 757, 3, -0.25, 758, 3, -0.25, 710, 3, -0.25
*EQUATION
3
1129, 1, 1.0, 757, 1, -0.5, 758, 1, -0.5
*EQUATION
3
1129, 2, 1.0, 757, 2, -0.5, 758, 2, -0.5
*EQUATION
3
1129, 3, 1.0, 757, 3, -0.5, 758, 3, -0.5
*EQUATION
5
1134, 1, 1.0, 710, 1, -0.25, 713, 1, -0.25, 714, 1, -0.25, 711, 1, -0.25
*EQUATION
5
1134, 2, 1.0, 710, 2, -0.25, 713, 2, -0.25, 714, 2, -0.25, 711, 2, -0.25
*EQUATION
5
1134, 3, 1.0, 710, 3, -0.25, 713, 3, -0.25, 714, 3, -0.25, 711, 3, -0.25
*EQUATION
3
1135, 1, 1.0, 711, 1, -0.5, 714, 1, -0.5
*EQUATION
3
1135, 2, 1.0, 711, 2, -0.5, 714, 2, -0.5
*EQUATION
3
1135, 3, 1.0, 711, 3, -0.5, 714, 3, -0.5
*EQUATION
3
1136, 1, 1.0, 713, 1, -0.5, 714, 1, -0.5
*EQUATION
3
1136, 2, 1.0, 713, 2, -0.5, 714, 2, -0.5
*EQUATION
3
1136, 3, 1.0, 713, 3, -0.5, 714, 3, -0.5
*EQUATION
5
1154, 1, 1.0, 713, 1, -0.25, 716, 1, -0.25, 717, 1, -0.25, 714, 1, -0.25
*EQUATION
5
1154, 2, 1.0, 713, 2, -0.25, 716, 2, -0.25, 717, 2, -0.25, 714, 2, -0.25
*EQUATION
5
1154, 3, 1.0, 713, 3, -0.25, 716, 3, -0.25, 717, 3, -0.25, 714, 3, -0.25
*EQUATION
3
1155, 1, 1.0, 714, 1, -0.5, 717, 1, -0.5
*EQUATION
3
1155, 2, 1.0, 714, 2, -0.5, 717, 2, -0.5
*EQUATION
3
1155, 3, 1.0, 714, 3, -0.5, 717, 3, -0.5
*EQUATION
3
1156, 1, 1.0, 716, 1, -0.5, 717, 1, -0.5
*EQUATION
3
1156, 2, 1.0, 716, 2, -0.5, 717, 2, -0.5
*EQUATION
3
1156, 3, 1.0, 716, 3, -0.5, 717, 3, -0.5
*EQUATION
5
1174, 1, 1.0, 716, 1, -0.25, 719, 1, -0.25, 720, 1, -0.25, 717, 1, -0.25
*EQUATION
5
1174, 2, 1.0, 716, 2, -0.25, 719, 2, -0.25, 720, 2, -0.25, 717, 2, -0.25
*EQUATION
5
1174, 3, 1.0, 716, 3, -0.25, 719, 3, -0.25, 720, 3, -0.25, 717, 3, -0.25
*EQUATION
3
1175, 1, 1.0, 717, 1, -0.5, 720, 1, -0.5
*EQUATION
3
1175, 2, 1.0, 717, 2, -0.5, 720, 2, -0.5
*EQUATION
3
1175, 3, 1.0, 717, 3, -0.5, 720, 3, -0.5
*EQUATION
3
1176, 1, 1.0, 719, 1, -0.5, 720, 1, -0.5
*EQUATION
3
1176, 2, 1.0, 719, 2, -0.5, 720, 2, -0.5
*EQUATION
3
1176, 3, 1.0, 719, 3, -0.5, 720, 3, -0.5
*EQUATION
3
1228, 1, 1.0, 748, 1, -0.5, 796, 1, -0.5
*EQUATION
3
1228, 2, 1.0, 748, 2, -0.5, 796, 2, -0.5
*EQUATION
3
1228, 3, 1.0, 748, 3, -0.5, 796, 3, -0.5
*EQUATION
5
1229, 1, 1.0, 748, 1, -0.25, 796, 1, -0.25, 797, 1, -0.25, 749, 1, -0.25
*EQUATION
5
1229, 2, 1.0, 748, 2, -0.25, 796, 2, -0.25, 797, 2, -0.25, 749, 2, -0.25
*EQUATION
5
1229, 3, 1.0, 748, 3, -0.25, 796, 3, -0.25, 797, 3, -0.25, 749, 3, -0.25
*EQUATION
3
1230, 1, 1.0, 749, 1, -0.5, 797, 1, -0.5
*EQUATION
3
1230, 2, 1.0, 749, 2, -0.5, 797, 2, -0.5
*EQUATION
3
1230, 3, 1.0, 749, 3, -0.5, 797, 3, -0.5
*EQUATION
3
1234, 1, 1.0, 796, 1, -0.5, 797, 1, -0.5
*EQUATION
3
1234, 2, 1.0, 796, 2, -0.5, 797, 2, -0.5
*EQUATION
3
1234, 3, 1.0, 796, 3, -0.5, 797, 3, -0.5
*EQUATION
5
1242, 1, 1.0, 749, 1, -0.25, 797, 1, -0.25, 799, 1, -0.25, 751, 1, -0.25
*EQUATION
5
1242, 2, 1.0, 749, 2, -0.25, 797, 2, -0.25, 799, 2, -0.25, 751, 2, -0.25
*EQUATION
5
1242, 3, 1.0, 749, 3, -0.25, 797, 3, -0.25, 799, 3, -0.25, 751, 3, -0.25
*EQUATION
3
1245, 1, 1.0, 751, 1, -0.5, 799, 1, -0.5
*EQUATION
3
1245, 2, 1.0, 751, 2, -0.5, 799, 2, -0.5
*EQUATION
3
1245, 3, 1.0, 751, 3, -0.5, 799, 3, -0.5
*EQUATION
5
1246, 1, 1.0, 751, 1, -0.25, 799, 1, -0.25, 800, 1, -0.25, 752, 1, -0.25
*EQUATION
5
1246, 2, 1.0, 751, 2, -0.25, 799, 2, -0.25, 800, 2, -0.25, 752, 2, -0.25
*EQUATION
5
1246, 3, 1.0, 751, 3, -0.25, 799, 3, -0.25, 800, 3, -0.25, 752, 3, -0.25
*EQUATION
3
1247, 1, 1.0, 752, 1, -0.5, 800, 1, -0.5
*EQUATION
3
1247, 2, 1.0, 752, 2, -0.5, 800, 2, -0.5
*EQUATION
3
1247, 3, 1.0, 752, 3, -0.5, 800, 3, -0.5
*EQUATION
3
1248, 1, 1.0, 797, 1, -0.5, 799, 1, -0.5
*EQUATION
3
1248, 2, 1.0, 797, 2, -0.5, 799, 2, -0.5
*EQUATION
3
1248, 3, 1.0, 797, 3, -0.5, 799, 3, -0.5
*EQUATION
3
1251, 1, 1.0, 799, 1, -0.5, 800, 1, -0.5
*EQUATION
3
1251, 2, 1.0, 799, 2, -0.5, 800, 2, -0.5
*EQUATION
3
1251, 3, 1.0, 799, 3, -0.5, 800, 3, -0.5
*EQUATION
3
1252, 1, 1.0, 755, 1, -0.5, 803, 1, -0.5
*EQUATION
3
1252, 2, 1.0, 755, 2, -0.5, 803, 2, -0.5
*EQUATION
3
1252, 3, 1.0, 755, 3, -0.5, 803, 3, -0.5
*EQUATION
5
1253, 1, 1.0, 755, 1, -0.25, 803, 1, -0.25, 804, 1, -0.25, 756, 1, -0.25
*EQUATION
5
1253, 2, 1.0, 755, 2, -0.25, 803, 2, -0.25, 804, 2, -0.25, 756, 2, -0.25
*EQUATION
5
1253, 3, 1.0, 755, 3, -0.25, 803, 3, -0.25, 804, 3, -0.25, 756, 3, -0.25
*EQUATION
3
1254, 1, 1.0, 756, 1, -0.5, 804, 1, -0.5
*EQUATION
3
1254, 2, 1.0, 756, 2, -0.5, 804, 2, -0.5
*EQUATION
3
1254, 3, 1.0, 756, 3, -0.5, 804, 3, -0.5
*EQUATION
5
1255, 1, 1.0, 755, 1, -0.25, 803, 1, -0.25, 806, 1, -0.25, 758, 1, -0.25
*EQUATION
5
1255, 2, 1.0, 755, 2, -0.25, 803, 2, -0.25, 806, 2, -0.25, 758, 2, -0.25
*EQUATION
5
1255, 3, 1.0, 755, 3, -0.25, 803, 3, -0.25, 806, 3, -0.25, 758, 3, -0.25
*EQUATION
3
1258, 1, 1.0, 758, 1, -0.5, 806, 1, -0.5
*EQUATION
3
1258, 2, 1.0, 758, 2, -0.5, 806, 2, -0.5
*EQUATION
3
1258, 3, 1.0, 758, 3, -0.5, 806, 3, -0.5
*EQUATION
3
1261, 1, 1.0, 803, 1, -0.5, 804, 1, -0.5
*EQUATION
3
1261, 2, 1.0, 803, 2, -0.5, 804, 2, -0.5
*EQUATION
3
1261, 3, 1.0, 803, 3, -0.5, 804, 3, -0.5
*EQUATION
3
1262, 1, 1.0, 803, 1, -0.5, 806, 1, -0.5
*EQUATION
3
1262, 2, 1.0, 803, 2, -0.5, 806, 2, -0.5
*EQUATION
3
1262, 3, 1.0, 803, 3, -0.5, 806, 3, -0.5
*EQUATION
3
1266, 1, 1.0, 757, 1, -0.5, 805, 1, -0.5
*EQUATION
3
1266, 2, 1.0, 757, 2, -0.5, 805, 2, -0.5
*EQUATION
3
1266, 3, 1.0, 757, 3, -0.5, 805, 3, -0.5
*EQUATION
5
1267, 1, 1.0, 757, 1, -0.25, 805, 1, -0.25, 806, 1, -0.25, 758, 1, -0.25
*EQUATION
5
1267, 2, 1.0, 757, 2, -0.25, 805, 2, -0.25, 806, 2, -0.25, 758, 2, -0.25
*EQUATION
5
1267, 3, 1.0, 757, 3, -0.25, 805, 3, -0.25, 806, 3, -0.25, 758, 3, -0.25
*EQUATION
3
1274, 1, 1.0, 805, 1, -0.5, 806, 1, -0.5
*EQUATION
3
1274, 2, 1.0, 805, 2, -0.5, 806, 2, -0.5
*EQUATION
3
1274, 3, 1.0, 805, 3, -0.5, 806, 3, -0.5
*EQUATION
3
1364, 1, 1.0, 796, 1, -0.5, 844, 1, -0.5
*EQUATION
3
1364, 2, 1.0, 796, 2, -0.5, 844, 2, -0.5
*EQUATION
3
1364, 3, 1.0, 796, 3, -0.5, 844, 3, -0.5
*EQUATION
5
1365, 1, 1.0, 796, 1, -0.25, 844, 1, -0.25, 845, 1, -0.25, 797, 1, -0.25
*EQUATION
5
1365, 2, 1.0, 796, 2, -0.25, 844, 2, -0.25, 845, 2, -0.25, 797, 2, -0.25
*EQUATION
5
1365, 3, 1.0, 796, 3, -0.25, 844, 3, -0.25, 845, 3, -0.25, 797, 3, -0.25
*EQUATION
3
1366, 1, 1.0, 797, 1, -0.5, 845, 1, -0.5
*EQUATION
3
1366, 2, 1.0, 797, 2, -0.5, 845, 2, -0.5
*EQUATION
3
1366, 3, 1.0, 797, 3, -0.5, 845, 3, -0.5
*EQUATION
3
1370, 1, 1.0, 844, 1, -0.5, 845, 1, -0.5
*EQUATION
3
1370, 2, 1.0, 844, 2, -0.5, 845, 2, -0.5
*EQUATION
3
1370, 3, 1.0, 844, 3, -0.5, 845, 3, -0.5
*EQUATION
5
1378, 1, 1.0, 797, 1, -0.25, 845, 1, -0.25, 847, 1, -0.25, 799, 1, -0.25
*EQUATION
5
1378, 2, 1.0, 797, 2, -0.25, 845, 2, -0.25, 847, 2, -0.25, 799, 2, -0.25
*EQUATION
5
1378, 3, 1.0, 797, 3, -0.25, 845, 3, -0.25, 847, 3, -0.25, 799, 3, -0.25
*EQUATION
3
1381, 1, 1.0, 799, 1, -0.5, 847, 1, -0.5
*EQUATION
3
1381, 2, 1.0, 799, 2, -0.5, 847, 2, -0.5
*EQUATION
3
1381, 3, 1.0, 799, 3, -0.5, 847, 3, -0.5
*EQUATION
5
1382, 1, 1.0, 799, 1, -0.25, 847, 1, -0.25, 848, 1, -0.25, 800, 1, -0.25
*EQUATION
5
1382, 2, 1.0, 799, 2, -0.25, 847, 2, -0.25, 848, 2, -0.25, 800, 2, -0.25
*EQUATION
5
1382, 3, 1.0, 799, 3, -0.25, 847, 3, -0.25, 848, 3, -0.25, 800, 3, -0.25
*EQUATION
3
1383, 1, 1.0, 800, 1, -0.5, 848, 1, -0.5
*EQUATION
3
1383, 2, 1.0, 800, 2, -0.5, 848, 2, -0.5
*EQUATION
3
1383, 3, 1.0, 800, 3, -0.5, 848, 3, -0.5
*EQUATION
3
1384, 1, 1.0, 845, 1, -0.5, 847, 1, -0.5
*EQUATION
3
1384, 2, 1.0, 845, 2, -0.5, 847, 2, -0.5
*EQUATION
3
1384, 3, 1.0, 845, 3, -0.5, 847, 3, -0.5
*EQUATION
3
1387, 1, 1.0, 847, 1, -0.5, 848, 1, -0.5
*EQUATION
3
1387, 2, 1.0, 847, 2, -0.5, 848, 2, -0.5
*EQUATION
3
1387, 3, 1.0, 847, 3, -0.5, 848, 3, -0.5
*EQUATION
3
1388, 1, 1.0, 803, 1, -0.5, 851, 1, -0.5
*EQUATION
3
1388, 2, 1.0, 803, 2, -0.5, 851, 2, -0.5
*EQUATION
3
1388, 3, 1.0, 803, 3, -0.5, 851, 3, -0.5
*EQUATION
5
1389, 1, 1.0, 803, 1, -0.25, 851, 1, -0.25, 852, 1, -0.25, 804, 1, -0.25
*EQUATION
5
1389, 2, 1.0, 803, 2, -0.25, 851, 2, -0.25, 852, 2, -0.25, 804, 2, -0.25
*EQUATION
5
1389, 3, 1.0, 803, 3, -0.25, 851, 3, -0.25, 852, 3, -0.25, 804, 3, -0.25
*EQUATION
3
1390, 1, 1.0, 804, 1, -0.5, 852, 1, -0.5
*EQUATION
3
1390, 2, 1.0, 804, 2, -0.5, 852, 2, -0.5
*EQUATION
3
1390, 3, 1.0, 804, 3, -0.5, 852, 3, -0.5
*EQUATION
5
1391, 1, 1.0, 803, 1, -0.25, 851, 1, -0.25, 854, 1, -0.25, 806, 1, -0.25
*EQUATION
5
1391, 2, 1.0, 803, 2, -0.25, 851, 2, -0.25, 854, 2, -0.25, 806, 2, -0.25
*EQUATION
5
1391, 3, 1.0, 803, 3, -0.25, 851, 3, -0.25, 854, 3, -0.25, 806, 3, -0.25
*EQUATION
3
1394, 1, 1.0, 806, 1, -0.5, 854, 1, -0.5
*EQUATION
3
1394, 2, 1.0, 806, 2, -0.5, 854, 2, -0.5
*EQUATION
3
1394, 3, 1.0, 806, 3, -0.5, 854, 3, -0.5
*EQUATION
3
1397, 1, 1.0, 851, 1, -0.5, 852, 1, -0.5
*EQUATION
3
1397, 2, 1.0, 851, 2, -0.5, 852, 2, -0.5
*EQUATION
3
1397, 3, 1.0, 851, 3, -0.5, 852, 3, -0.5
*EQUATION
3
1398, 1, 1.0, 851, 1, -0.5, 854, 1, -0.5
*EQUATION
3
1398, 2, 1.0, 851, 2, -0.5, 854, 2, -0.5
*EQUATION
3
1398, 3, 1.0, 851, 3, -0.5, 854, 3, -0.5
*EQUATION
3
1402, 1, 1.0, 805, 1, -0.5, 853, 1, -0.5
*EQUATION
3
1402, 2, 1.0, 805, 2, -0.5, 853, 2, -0.5
*EQUATION
3
1402, 3, 1.0, 805, 3, -0.5, 853, 3, -0.5
*EQUATION
5
1403, 1, 1.0, 805, 1, -0.25, 853, 1, -0.25, 854, 1, -0.25, 806, 1, -0.25
*EQUATION
5
1403, 2, 1.0, 805, 2, -0.25, 853, 2, -0.25, 854, 2, -0.25, 806, 2, -0.25
*EQUATION
5
1403, 3, 1.0, 805, 3, -0.25, 853, 3, -0.25, 854, 3, -0.25, 806, 3, -0.25
*EQUATION
3
1410, 1, 1.0, 853, 1, -0.5, 854, 1, -0.5
*EQUATION
3
1410, 2, 1.0, 853, 2, -0.5, 854, 2, -0.5
*EQUATION
3
1410, 3, 1.0, 853, 3, -0.5, 854, 3, -0.5
*EQUATION
3
1500, 1, 1.0, 844, 1, -0.5, 892, 1, -0.5
*EQUATION
3
1500, 2, 1.0, 844, 2, -0.5, 892, 2, -0.5
*EQUATION
3
1500, 3, 1.0, 844, 3, -0.5, 892, 3, -0.5
*EQUATION
5
1501, 1, 1.0, 844, 1, -0.25, 892, 1, -0.25, 893, 1, -0.25, 845, 1, -0.25
*EQUATION
5
1501, 2, 1.0, 844, 2, -0.25, 892, 2, -0.25, 893, 2, -0.25, 845, 2, -0.25
*EQUATION
5
1501, 3, 1.0, 844, 3, -0.25, 892, 3, -0.25, 893, 3, -0.25, 845, 3, -0.25
*EQUATION
3
1502, 1, 1.0, 845, 1, -0.5, 893, 1, -0.5
*EQUATION
3
1502, 2, 1.0, 845, 2, -0.5, 893, 2, -0.5
*EQUATION
3
1502, 3, 1.0, 845, 3, -0.5, 893, 3, -0.5
*EQUATION
3
1506, 1, 1.0, 892, 1, -0.5, 893, 1, -0.5
*EQUATION
3
1506, 2, 1.0, 892, 2, -0.5, 893, 2, -0.5
*EQUATION
3
1506, 3, 1.0, 892, 3, -0.5, 893, 3, -0.5
*EQUATION
5
1514, 1, 1.0, 845, 1, -0.25, 893, 1, -0.25, 895, 1, -0.25, 847, 1, -0.25
*EQUATION
5
1514, 2, 1.0, 845, 2, -0.25, 893, 2, -0.25, 895, 2, -0.25, 847, 2, -0.25
*EQUATION
5
1514, 3, 1.0, 845, 3, -0.25, 893, 3, -0.25, 895, 3, -0.25, 847, 3, -0.25
*EQUATION
3
1517, 1, 1.0, 847, 1, -0.5, 895, 1, -0.5
*EQUATION
3
1517, 2, 1.0, 847, 2, -0.5, 895, 2, -0.5
*EQUATION
3
1517, 3, 1.0, 847, 3, -0.5, 895, 3, -0.5
*EQUATION
5
1518, 1, 1.0, 847, 1, -0.25, 895, 1, -0.25, 896, 1, -0.25, 848, 1, -0.25
*EQUATION
5
1518, 2, 1.0, 847, 2, -0.25, 895, 2, -0.25, 896, 2, -0.25, 848, 2, -0.25
*EQUATION
5
1518, 3, 1.0, 847, 3, -0.25, 895, 3, -0.25, 896, 3, -0.25, 848, 3, -0.25
*EQUATION
3
1519, 1, 1.0, 848, 1, -0.5, 896, 1, -0.5
*EQUATION
3
1519, 2, 1.0, 848, 2, -0.5, 896, 2, -0.5
*EQUATION
3
1519, 3, 1.0, 848, 3, -0.5, 896, 3, -0.5
*EQUATION
3
1520, 1, 1.0, 893, 1, -0.5, 895, 1, -0.5
*EQUATION
3
1520, 2, 1.0, 893, 2, -0.5, 895, 2, -0.5
*EQUATION
3
1520, 3, 1.0, 893, 3, -0.5, 895, 3, -0.5
*EQUATION
3
1523, 1, 1.0, 895, 1, -0.5, 896, 1, -0.5
*EQUATION
3
1523, 2, 1.0, 895, 2, -0.5, 896, 2, -0.5
*EQUATION
3
1523, 3, 1.0, 895, 3, -0.5, 896, 3, -0.5
*EQUATION
3
1524, 1, 1.0, 851, 1, -0.5, 899, 1, -0.5
*EQUATION
3
1524, 2, 1.0, 851, 2, -0.5, 899, 2, -0.5
*EQUATION
3
1524, 3, 1.0, 851, 3, -0.5, 899, 3, -0.5
*EQUATION
5
1525, 1, 1.0, 851, 1, -0.25, 899, 1, -0.25, 900, 1, -0.25, 852, 1, -0.25
*EQUATION
5
1525, 2, 1.0, 851, 2, -0.25, 899, 2, -0.25, 900, 2, -0.25, 852, 2, -0.25
*EQUATION
5
1525, 3, 1.0, 851, 3, -0.25, 899, 3, -0.25, 900, 3, -0.25, 852, 3, -0.25
*EQUATION
3
1526, 1, 1.0, 852, 1, -0.5, 900, 1, -0.5
*EQUATION
3
1526, 2, 1.0, 852, 2, -0.5, 900, 2, -0.5
*EQUATION
3
1526, 3, 1.0, 852, 3, -0.5, 900, 3, -0.5
*EQUATION
5
1527, 1, 1.0, 851, 1, -0.25, 899, 1, -0.25, 902, 1, -0.25, 854, 1, -0.25
*EQUATION
5
1527, 2, 1.0, 851, 2, -0.25, 899, 2, -0.25, 902, 2, -0.25, 854, 2, -0.25
*EQUATION
5
1527, 3, 1.0, 851, 3, -0.25, 899, 3, -0.25, 902, 3, -0.25, 854, 3, -0.25
*EQUATION
3
1530, 1, 1.0, 854, 1, -0.5, 902, 1, -0.5
*EQUATION
3
1530, 2, 1.0, 854, 2, -0.5, 902, 2, -0.5
*EQUATION
3
1530, 3, 1.0, 854, 3, -0.5, 902, 3, -0.5
*EQUATION
3
1533, 1, 1.0, 899, 1, -0.5, 900, 1, -0.5
*EQUATION
3
1533, 2, 1.0, 899, 2, -0.5, 900, 2, -0.5
*EQUATION
3
1533, 3, 1.0, 899, 3, -0.5, 900, 3, -0.5
*EQUATION
3
1534, 1, 1.0, 899, 1, -0.5, 902, 1, -0.5
*EQUATION
3
1534, 2, 1.0, 899, 2, -0.5, 902, 2, -0.5
*EQUATION
3
1534, 3, 1.0, 899, 3, -0.5, 902, 3, -0.5
*EQUATION
3
1538, 1, 1.0, 853, 1, -0.5, 901, 1, -0.5
*EQUATION
3
1538, 2, 1.0, 853, 2, -0.5, 901, 2, -0.5
*EQUATION
3
1538, 3, 1.0, 853, 3, -0.5, 901, 3, -0.5
*EQUATION
5
1539, 1, 1.0, 853, 1, -0.25, 901, 1, -0.25, 902, 1, -0.25, 854, 1, -0.25
*EQUATION
5
1539, 2, 1.0, 853, 2, -0.25, 901, 2, -0.25, 902, 2, -0.25, 854, 2, -0.25
*EQUATION
5
1539, 3, 1.0, 853, 3, -0.25, 901, 3, -0.25, 902, 3, -0.25, 854, 3, -0.25
*EQUATION
3
1546, 1, 1.0, 901, 1, -0.5, 902, 1, -0.5
*EQUATION
3
1546, 2, 1.0, 901, 2, -0.5, 902, 2, -0.5
*EQUATION
3
1546, 3, 1.0, 901, 3, -0.5, 902, 3, -0.5
*BOUNDARY
CLAMP, 1, 3, 0.0
*STEP
*STATIC
*CLOAD
887, 3, -263.157894737
888, 3, -263.157894737
891, 3, -263.157894737
894, 3, -263.157894737
896, 3, -263.157894737
898, 3, -263.157894737
900, 3, -263.157894737
903, 3, -263.157894737
906, 3, -263.157894737
909, 3, -263.157894737
912, 3, -263.157894737
1478, 3, -263.157894737
1495, 3, -263.157894737
1512, 3, -263.157894737
1522, 3, -263.157894737
1536, 3, -263.157894737
1556, 3, -263.157894737
1573, 3, -263.157894737
1590, 3, -263.157894737
*NODE FILE
U
*EL FILE
S, ENER
*NODE PRINT, NSET=TIP_TOP
U
*NODE PRINT, NSET=CLAMP
RF
*EL PRINT, ELSET=EALL
ELSE
*ENERGY PRINT
*END STEP
