*HEADING
T07 S-LIN t07_s-lin_pso conforming C3D8 frozen T
units: mm, N, s, MPa, t. Illustrative steel, not a coupon card.
beam=T07 case=S-LIN job=t07_s-lin_pso type=C3D8
E=210000.0 nu=0.3 fy=235.0 load=-5000.0 N on TIP_TOP
*NODE, NSET=NALL
1, 0, -18, 0
2, 44.5032184521, -17.7329806893, 0
3, 44.5032184521, 0, 0
4, 0, 0, 0
5, 0, -18, 28
6, 44.5032184521, -17.7329806893, 28
7, 44.5032184521, 0, 28
8, 0, 0, 28
9, 0, -18, 56
10, 44.5032184521, -17.7329806893, 56
11, 44.5032184521, 0, 56
12, 0, 0, 56
13, 0, -18, 84
14, 44.5032184521, -17.7329806893, 84
15, 44.5032184521, 0, 84
16, 0, 0, 84
17, 0, -18, 112
18, 44.5032184521, -17.7329806893, 112
19, 44.5032184521, 0, 112
20, 0, 0, 112
** ... 1852 like lines cut
*ELEMENT, TYPE=C3D8, ELSET=EALL
1, 1, 2, 3, 4, 5, 6, 7, 8
2, 5, 6, 7, 8, 9, 10, 11, 12
3, 9, 10, 11, 12, 13, 14, 15, 16
4, 13, 14, 15, 16, 17, 18, 19, 20
5, 17, 18, 19, 20, 21, 22, 23, 24
6, 4, 3, 25, 26, 8, 7, 27, 28
7, 8, 7, 27, 28, 12, 11, 29, 30
8, 12, 11, 29, 30, 16, 15, 31, 32
9, 16, 15, 31, 32, 20, 19, 33, 34
10, 20, 19, 33, 34, 24, 23, 35, 36
11, 37, 38, 39, 40, 41, 42, 43, 44
12, 41, 42, 43, 44, 45, 46, 47, 48
13, 40, 39, 49, 50, 44, 43, 51, 52
14, 44, 43, 51, 52, 48, 47, 53, 54
15, 50, 49, 55, 56, 52, 51, 57, 58
16, 52, 51, 57, 58, 54, 53, 59, 60
17, 56, 55, 22, 21, 58, 57, 61, 62
18, 58, 57, 61, 62, 60, 59, 63, 64
19, 21, 22, 23, 24, 62, 61, 65, 66
20, 62, 61, 65, 66, 64, 63, 67, 68
** ... 1120 like lines cut
*NSET, NSET=CLAMP
1, 4, 5, 8, 9, 12, 13, 16, 17, 20, 21, 24, 26, 28, 30, 32
34, 36, 37, 40, 41, 44, 45, 48, 50, 52, 54, 56, 58, 60, 62, 64
66, 68, 70, 72, 74, 76, 78, 80, 82, 84, 86, 88, 90, 92, 94, 96
*NSET, NSET=TIP_TOP
1847, 1848, 1851, 1854, 1856, 1858, 1860, 1863, 1866, 1869, 1872
*NSET, NSET=TIP_FLANGE
1847, 1848, 1851, 1854, 1856, 1858, 1860, 1863, 1866, 1869, 1872
*MATERIAL, NAME=STEEL
*ELASTIC
210000, 0.3
*SOLID SECTION, ELSET=EALL, MATERIAL=STEEL
*BOUNDARY
CLAMP, 1, 3, 0.0
*STEP
*STATIC
*CLOAD
1847, 3, -454.545454545
1848, 3, -454.545454545
1851, 3, -454.545454545
1854, 3, -454.545454545
1856, 3, -454.545454545
1858, 3, -454.545454545
1860, 3, -454.545454545
1863, 3, -454.545454545
1866, 3, -454.545454545
1869, 3, -454.545454545
1872, 3, -454.545454545
*NODE FILE
U
*EL FILE
S, ENER
*NODE PRINT, NSET=TIP_TOP
U
*NODE PRINT, NSET=CLAMP
RF
*EL PRINT, ELSET=EALL
ELSE
*ENERGY PRINT
*END STEP
