*HEADING
T03 S-LIN hanging 8-split zz cycle 1
units: mm, N, s, MPa. Material is illustrative steel, not a coupon card.
E=210000.0 nu=0.3. load -5000.0 N on TIP_TOP.
*NODE, NSET=NALL
1, 0, -10, 0
2, 111.111111111, -10, 0
3, 111.111111111, 0, 0
4, 0, 0, 0
5, 0, -10, 40
6, 111.111111111, -10, 40
7, 111.111111111, 0, 40
8, 0, 0, 40
9, 0, -10, 80
10, 111.111111111, -10, 80
11, 111.111111111, 0, 80
12, 0, 0, 80
13, 0, -10, 120
14, 111.111111111, -10, 120
15, 111.111111111, 0, 120
16, 0, 0, 120
17, 0, -10, 160
18, 111.111111111, -10, 160
19, 111.111111111, 0, 160
20, 0, 0, 160
** ... 939 like lines cut
*ELEMENT, TYPE=C3D8, ELSET=EALL
1, 1, 2, 3, 4, 5, 6, 7, 8
2, 5, 6, 7, 8, 9, 10, 11, 12
3, 9, 10, 11, 12, 13, 14, 15, 16
4, 13, 14, 15, 16, 17, 18, 19, 20
5, 17, 18, 19, 20, 21, 22, 23, 24
6, 4, 3, 25, 26, 8, 7, 27, 28
7, 8, 7, 27, 28, 12, 11, 29, 30
8, 12, 11, 29, 30, 16, 15, 31, 32
9, 16, 15, 31, 32, 20, 19, 33, 34
10, 20, 19, 33, 34, 24, 23, 35, 36
11, 37, 38, 39, 40, 41, 42, 43, 44
12, 41, 42, 43, 44, 45, 46, 47, 48
13, 40, 39, 49, 50, 44, 43, 51, 52
14, 44, 43, 51, 52, 48, 47, 53, 54
15, 50, 49, 55, 56, 52, 51, 57, 58
16, 52, 51, 57, 58, 54, 53, 59, 60
17, 56, 55, 22, 21, 58, 57, 61, 62
18, 58, 57, 61, 62, 60, 59, 63, 64
19, 21, 22, 23, 24, 62, 61, 65, 66
20, 62, 61, 65, 66, 64, 63, 67, 68
** ... 541 like lines cut
*NSET, NSET=CLAMP
1, 4, 5, 8, 9, 12, 13, 16, 17, 20, 21, 24, 26, 28, 30, 32
34, 36, 37, 40, 41, 44, 45, 48, 50, 52, 54, 56, 58, 60, 62, 64
66, 68, 70, 72, 74, 76, 78, 80, 82, 84, 86, 88, 90, 92, 94, 96
*NSET, NSET=TIP_TOP
887, 888, 891, 894, 896, 898, 900, 903, 906, 909, 912
*MATERIAL, NAME=STEEL
*ELASTIC
210000, 0.3
*SOLID SECTION, ELSET=EALL, MATERIAL=STEEL
*EQUATION
3
913, 1, 1.0, 241, 1, -0.5, 243, 1, -0.5
*EQUATION
3
913, 2, 1.0, 241, 2, -0.5, 243, 2, -0.5
*EQUATION
3
913, 3, 1.0, 241, 3, -0.5, 243, 3, -0.5
*EQUATION
3
914, 1, 1.0, 241, 1, -0.5, 242, 1, -0.5
*EQUATION
3
914, 2, 1.0, 241, 2, -0.5, 242, 2, -0.5
*EQUATION
3
914, 3, 1.0, 241, 3, -0.5, 242, 3, -0.5
*EQUATION
5
915, 1, 1.0, 241, 1, -0.25, 242, 1, -0.25, 244, 1, -0.25, 243, 1, -0.25
*EQUATION
5
915, 2, 1.0, 241, 2, -0.25, 242, 2, -0.25, 244, 2, -0.25, 243, 2, -0.25
*EQUATION
5
915, 3, 1.0, 241, 3, -0.25, 242, 3, -0.25, 244, 3, -0.25, 243, 3, -0.25
*EQUATION
3
916, 1, 1.0, 243, 1, -0.5, 244, 1, -0.5
*EQUATION
3
916, 2, 1.0, 243, 2, -0.5, 244, 2, -0.5
*EQUATION
3
916, 3, 1.0, 243, 3, -0.5, 244, 3, -0.5
*EQUATION
3
917, 1, 1.0, 242, 1, -0.5, 244, 1, -0.5
*EQUATION
3
917, 2, 1.0, 242, 2, -0.5, 244, 2, -0.5
*EQUATION
3
917, 3, 1.0, 242, 3, -0.5, 244, 3, -0.5
*EQUATION
3
926, 1, 1.0, 244, 1, -0.5, 292, 1, -0.5
*EQUATION
3
926, 2, 1.0, 244, 2, -0.5, 292, 2, -0.5
*EQUATION
3
926, 3, 1.0, 244, 3, -0.5, 292, 3, -0.5
*EQUATION
3
927, 1, 1.0, 289, 1, -0.5, 291, 1, -0.5
*EQUATION
3
927, 2, 1.0, 289, 2, -0.5, 291, 2, -0.5
*EQUATION
3
927, 3, 1.0, 289, 3, -0.5, 291, 3, -0.5
*EQUATION
3
928, 1, 1.0, 289, 1, -0.5, 290, 1, -0.5
*EQUATION
3
928, 2, 1.0, 289, 2, -0.5, 290, 2, -0.5
*EQUATION
3
928, 3, 1.0, 289, 3, -0.5, 290, 3, -0.5
*EQUATION
5
929, 1, 1.0, 289, 1, -0.25, 290, 1, -0.25, 292, 1, -0.25, 291, 1, -0.25
*EQUATION
5
929, 2, 1.0, 289, 2, -0.25, 290, 2, -0.25, 292, 2, -0.25, 291, 2, -0.25
*EQUATION
5
929, 3, 1.0, 289, 3, -0.25, 290, 3, -0.25, 292, 3, -0.25, 291, 3, -0.25
*EQUATION
3
930, 1, 1.0, 291, 1, -0.5, 292, 1, -0.5
*EQUATION
3
930, 2, 1.0, 291, 2, -0.5, 292, 2, -0.5
*EQUATION
3
930, 3, 1.0, 291, 3, -0.5, 292, 3, -0.5
*EQUATION
3
931, 1, 1.0, 290, 1, -0.5, 292, 1, -0.5
*EQUATION
3
931, 2, 1.0, 290, 2, -0.5, 292, 2, -0.5
*EQUATION
3
931, 3, 1.0, 290, 3, -0.5, 292, 3, -0.5
*EQUATION
3
932, 1, 1.0, 243, 1, -0.5, 245, 1, -0.5
*EQUATION
3
932, 2, 1.0, 243, 2, -0.5, 245, 2, -0.5
*EQUATION
3
932, 3, 1.0, 243, 3, -0.5, 245, 3, -0.5
*EQUATION
5
933, 1, 1.0, 243, 1, -0.25, 244, 1, -0.25, 246, 1, -0.25, 245, 1, -0.25
*EQUATION
5
933, 2, 1.0, 243, 2, -0.25, 244, 2, -0.25, 246, 2, -0.25, 245, 2, -0.25
*EQUATION
5
933, 3, 1.0, 243, 3, -0.25, 244, 3, -0.25, 246, 3, -0.25, 245, 3, -0.25
*EQUATION
3
934, 1, 1.0, 245, 1, -0.5, 246, 1, -0.5
*EQUATION
3
934, 2, 1.0, 245, 2, -0.5, 246, 2, -0.5
*EQUATION
3
934, 3, 1.0, 245, 3, -0.5, 246, 3, -0.5
*EQUATION
3
935, 1, 1.0, 244, 1, -0.5, 246, 1, -0.5
*EQUATION
3
935, 2, 1.0, 244, 2, -0.5, 246, 2, -0.5
*EQUATION
3
935, 3, 1.0, 244, 3, -0.5, 246, 3, -0.5
*EQUATION
3
937, 1, 1.0, 245, 1, -0.5, 293, 1, -0.5
*EQUATION
3
937, 2, 1.0, 245, 2, -0.5, 293, 2, -0.5
*EQUATION
3
937, 3, 1.0, 245, 3, -0.5, 293, 3, -0.5
*EQUATION
5
939, 1, 1.0, 245, 1, -0.25, 293, 1, -0.25, 294, 1, -0.25, 246, 1, -0.25
*EQUATION
5
939, 2, 1.0, 245, 2, -0.25, 293, 2, -0.25, 294, 2, -0.25, 246, 2, -0.25
*EQUATION
5
939, 3, 1.0, 245, 3, -0.25, 293, 3, -0.25, 294, 3, -0.25, 246, 3, -0.25
*EQUATION
5
940, 1, 1.0, 244, 1, -0.25, 292, 1, -0.25, 294, 1, -0.25, 246, 1, -0.25
*EQUATION
5
940, 2, 1.0, 244, 2, -0.25, 292, 2, -0.25, 294, 2, -0.25, 246, 2, -0.25
*EQUATION
5
940, 3, 1.0, 244, 3, -0.25, 292, 3, -0.25, 294, 3, -0.25, 246, 3, -0.25
*EQUATION
3
941, 1, 1.0, 246, 1, -0.5, 294, 1, -0.5
*EQUATION
3
941, 2, 1.0, 246, 2, -0.5, 294, 2, -0.5
*EQUATION
3
941, 3, 1.0, 246, 3, -0.5, 294, 3, -0.5
*EQUATION
3
942, 1, 1.0, 291, 1, -0.5, 293, 1, -0.5
*EQUATION
3
942, 2, 1.0, 291, 2, -0.5, 293, 2, -0.5
*EQUATION
3
942, 3, 1.0, 291, 3, -0.5, 293, 3, -0.5
*EQUATION
5
943, 1, 1.0, 291, 1, -0.25, 292, 1, -0.25, 294, 1, -0.25, 293, 1, -0.25
*EQUATION
5
943, 2, 1.0, 291, 2, -0.25, 292, 2, -0.25, 294, 2, -0.25, 293, 2, -0.25
*EQUATION
5
943, 3, 1.0, 291, 3, -0.25, 292, 3, -0.25, 294, 3, -0.25, 293, 3, -0.25
*EQUATION
3
944, 1, 1.0, 293, 1, -0.5, 294, 1, -0.5
*EQUATION
3
944, 2, 1.0, 293, 2, -0.5, 294, 2, -0.5
*EQUATION
3
944, 3, 1.0, 293, 3, -0.5, 294, 3, -0.5
*EQUATION
3
945, 1, 1.0, 292, 1, -0.5, 294, 1, -0.5
*EQUATION
3
945, 2, 1.0, 292, 2, -0.5, 294, 2, -0.5
*EQUATION
3
945, 3, 1.0, 292, 3, -0.5, 294, 3, -0.5
*EQUATION
3
946, 1, 1.0, 242, 1, -0.5, 253, 1, -0.5
*EQUATION
3
946, 2, 1.0, 242, 2, -0.5, 253, 2, -0.5
*EQUATION
3
946, 3, 1.0, 242, 3, -0.5, 253, 3, -0.5
*EQUATION
5
947, 1, 1.0, 242, 1, -0.25, 253, 1, -0.25, 254, 1, -0.25, 244, 1, -0.25
*EQUATION
5
947, 2, 1.0, 242, 2, -0.25, 253, 2, -0.25, 254, 2, -0.25, 244, 2, -0.25
*EQUATION
5
947, 3, 1.0, 242, 3, -0.25, 253, 3, -0.25, 254, 3, -0.25, 244, 3, -0.25
*EQUATION
3
948, 1, 1.0, 244, 1, -0.5, 254, 1, -0.5
*EQUATION
3
948, 2, 1.0, 244, 2, -0.5, 254, 2, -0.5
*EQUATION
3
948, 3, 1.0, 244, 3, -0.5, 254, 3, -0.5
*EQUATION
3
949, 1, 1.0, 253, 1, -0.5, 254, 1, -0.5
*EQUATION
3
949, 2, 1.0, 253, 2, -0.5, 254, 2, -0.5
*EQUATION
3
949, 3, 1.0, 253, 3, -0.5, 254, 3, -0.5
*EQUATION
5
952, 1, 1.0, 244, 1, -0.25, 292, 1, -0.25, 302, 1, -0.25, 254, 1, -0.25
*EQUATION
5
952, 2, 1.0, 244, 2, -0.25, 292, 2, -0.25, 302, 2, -0.25, 254, 2, -0.25
*EQUATION
5
952, 3, 1.0, 244, 3, -0.25, 292, 3, -0.25, 302, 3, -0.25, 254, 3, -0.25
*EQUATION
3
955, 1, 1.0, 254, 1, -0.5, 302, 1, -0.5
*EQUATION
3
955, 2, 1.0, 254, 2, -0.5, 302, 2, -0.5
*EQUATION
3
955, 3, 1.0, 254, 3, -0.5, 302, 3, -0.5
*EQUATION
3
956, 1, 1.0, 290, 1, -0.5, 301, 1, -0.5
*EQUATION
3
956, 2, 1.0, 290, 2, -0.5, 301, 2, -0.5
*EQUATION
3
956, 3, 1.0, 290, 3, -0.5, 301, 3, -0.5
*EQUATION
5
957, 1, 1.0, 290, 1, -0.25, 301, 1, -0.25, 302, 1, -0.25, 292, 1, -0.25
*EQUATION
5
957, 2, 1.0, 290, 2, -0.25, 301, 2, -0.25, 302, 2, -0.25, 292, 2, -0.25
*EQUATION
5
957, 3, 1.0, 290, 3, -0.25, 301, 3, -0.25, 302, 3, -0.25, 292, 3, -0.25
*EQUATION
3
958, 1, 1.0, 292, 1, -0.5, 302, 1, -0.5
*EQUATION
3
958, 2, 1.0, 292, 2, -0.5, 302, 2, -0.5
*EQUATION
3
958, 3, 1.0, 292, 3, -0.5, 302, 3, -0.5
*EQUATION
3
959, 1, 1.0, 301, 1, -0.5, 302, 1, -0.5
*EQUATION
3
959, 2, 1.0, 301, 2, -0.5, 302, 2, -0.5
*EQUATION
3
959, 3, 1.0, 301, 3, -0.5, 302, 3, -0.5
*BOUNDARY
CLAMP, 1, 3, 0.0
*STEP
*STATIC
*CLOAD
887, 3, -454.545454545
888, 3, -454.545454545
891, 3, -454.545454545
894, 3, -454.545454545
896, 3, -454.545454545
898, 3, -454.545454545
900, 3, -454.545454545
903, 3, -454.545454545
906, 3, -454.545454545
909, 3, -454.545454545
912, 3, -454.545454545
*NODE FILE
U
*EL FILE
S, ENER
*NODE PRINT, NSET=TIP_TOP
U
*NODE PRINT, NSET=CLAMP
RF
*EL PRINT, ELSET=EALL
ELSE
*ENERGY PRINT
*END STEP
