*HEADING
T09 S-LIN hanging 8-split zz cycle 1
units: mm, N, s, MPa. Material is illustrative steel, not a coupon card.
E=210000.0 nu=0.3. load -5000.0 N on TIP_TOP.
*NODE, NSET=NALL
1, 0, -14, 6
2, 111.111111111, -14, 6
3, 111.111111111, 0, 6
4, 0, 0, 6
5, 0, -14, 44
6, 111.111111111, -14, 44
7, 111.111111111, 0, 44
8, 0, 0, 44
9, 0, -14, 82
10, 111.111111111, -14, 82
11, 111.111111111, 0, 82
12, 0, 0, 82
13, 0, -14, 120
14, 111.111111111, -14, 120
15, 111.111111111, 0, 120
16, 0, 0, 120
17, 0, -14, 158
18, 111.111111111, -14, 158
19, 111.111111111, 0, 158
20, 0, 0, 158
** ... 1167 like lines cut
*ELEMENT, TYPE=C3D8, ELSET=EALL
1, 1, 2, 3, 4, 5, 6, 7, 8
2, 5, 6, 7, 8, 9, 10, 11, 12
3, 9, 10, 11, 12, 13, 14, 15, 16
4, 13, 14, 15, 16, 17, 18, 19, 20
5, 17, 18, 19, 20, 21, 22, 23, 24
6, 4, 3, 25, 26, 8, 7, 27, 28
7, 8, 7, 27, 28, 12, 11, 29, 30
8, 12, 11, 29, 30, 16, 15, 31, 32
9, 16, 15, 31, 32, 20, 19, 33, 34
10, 20, 19, 33, 34, 24, 23, 35, 36
11, 37, 38, 39, 40, 41, 42, 43, 44
12, 41, 42, 43, 44, 45, 46, 47, 48
13, 40, 39, 49, 50, 44, 43, 51, 52
14, 44, 43, 51, 52, 48, 47, 53, 54
15, 50, 49, 55, 56, 52, 51, 57, 58
16, 52, 51, 57, 58, 54, 53, 59, 60
17, 56, 55, 22, 21, 58, 57, 61, 62
18, 58, 57, 61, 62, 60, 59, 63, 64
19, 21, 22, 23, 24, 62, 61, 65, 66
20, 62, 61, 65, 66, 64, 63, 67, 68
** ... 667 like lines cut
*NSET, NSET=CLAMP
1, 4, 5, 8, 9, 12, 13, 16, 17, 20, 21, 24, 26, 28, 30, 32
34, 36, 37, 40, 41, 44, 45, 48, 50, 52, 54, 56, 58, 60, 62, 64
66, 68, 70, 72, 74, 76, 78, 80, 82, 84, 86, 88, 90, 92, 94, 96
*NSET, NSET=TIP_TOP
887, 888, 891, 894, 896, 898, 900, 903, 906, 909, 912
*MATERIAL, NAME=STEEL
*ELASTIC
210000, 0.3
*SOLID SECTION, ELSET=EALL, MATERIAL=STEEL
*EQUATION
3
913, 1, 1.0, 509, 1, -0.5, 510, 1, -0.5
*EQUATION
3
913, 2, 1.0, 509, 2, -0.5, 510, 2, -0.5
*EQUATION
3
913, 3, 1.0, 509, 3, -0.5, 510, 3, -0.5
*EQUATION
3
914, 1, 1.0, 509, 1, -0.5, 511, 1, -0.5
*EQUATION
3
914, 2, 1.0, 509, 2, -0.5, 511, 2, -0.5
*EQUATION
3
914, 3, 1.0, 509, 3, -0.5, 511, 3, -0.5
*EQUATION
5
915, 1, 1.0, 509, 1, -0.25, 511, 1, -0.25, 512, 1, -0.25, 510, 1, -0.25
*EQUATION
5
915, 2, 1.0, 509, 2, -0.25, 511, 2, -0.25, 512, 2, -0.25, 510, 2, -0.25
*EQUATION
5
915, 3, 1.0, 509, 3, -0.25, 511, 3, -0.25, 512, 3, -0.25, 510, 3, -0.25
*EQUATION
3
916, 1, 1.0, 510, 1, -0.5, 512, 1, -0.5
*EQUATION
3
916, 2, 1.0, 510, 2, -0.5, 512, 2, -0.5
*EQUATION
3
916, 3, 1.0, 510, 3, -0.5, 512, 3, -0.5
*EQUATION
3
917, 1, 1.0, 511, 1, -0.5, 512, 1, -0.5
*EQUATION
3
917, 2, 1.0, 511, 2, -0.5, 512, 2, -0.5
*EQUATION
3
917, 3, 1.0, 511, 3, -0.5, 512, 3, -0.5
*EQUATION
3
918, 1, 1.0, 509, 1, -0.5, 557, 1, -0.5
*EQUATION
3
918, 2, 1.0, 509, 2, -0.5, 557, 2, -0.5
*EQUATION
3
918, 3, 1.0, 509, 3, -0.5, 557, 3, -0.5
*EQUATION
5
919, 1, 1.0, 509, 1, -0.25, 557, 1, -0.25, 558, 1, -0.25, 510, 1, -0.25
*EQUATION
5
919, 2, 1.0, 509, 2, -0.25, 557, 2, -0.25, 558, 2, -0.25, 510, 2, -0.25
*EQUATION
5
919, 3, 1.0, 509, 3, -0.25, 557, 3, -0.25, 558, 3, -0.25, 510, 3, -0.25
*EQUATION
3
920, 1, 1.0, 510, 1, -0.5, 558, 1, -0.5
*EQUATION
3
920, 2, 1.0, 510, 2, -0.5, 558, 2, -0.5
*EQUATION
3
920, 3, 1.0, 510, 3, -0.5, 558, 3, -0.5
*EQUATION
5
921, 1, 1.0, 509, 1, -0.25, 557, 1, -0.25, 559, 1, -0.25, 511, 1, -0.25
*EQUATION
5
921, 2, 1.0, 509, 2, -0.25, 557, 2, -0.25, 559, 2, -0.25, 511, 2, -0.25
*EQUATION
5
921, 3, 1.0, 509, 3, -0.25, 557, 3, -0.25, 559, 3, -0.25, 511, 3, -0.25
*EQUATION
3
924, 1, 1.0, 511, 1, -0.5, 559, 1, -0.5
*EQUATION
3
924, 2, 1.0, 511, 2, -0.5, 559, 2, -0.5
*EQUATION
3
924, 3, 1.0, 511, 3, -0.5, 559, 3, -0.5
*EQUATION
5
925, 1, 1.0, 511, 1, -0.25, 559, 1, -0.25, 560, 1, -0.25, 512, 1, -0.25
*EQUATION
5
925, 2, 1.0, 511, 2, -0.25, 559, 2, -0.25, 560, 2, -0.25, 512, 2, -0.25
*EQUATION
5
925, 3, 1.0, 511, 3, -0.25, 559, 3, -0.25, 560, 3, -0.25, 512, 3, -0.25
*EQUATION
3
926, 1, 1.0, 512, 1, -0.5, 560, 1, -0.5
*EQUATION
3
926, 2, 1.0, 512, 2, -0.5, 560, 2, -0.5
*EQUATION
3
926, 3, 1.0, 512, 3, -0.5, 560, 3, -0.5
*EQUATION
3
927, 1, 1.0, 557, 1, -0.5, 558, 1, -0.5
*EQUATION
3
927, 2, 1.0, 557, 2, -0.5, 558, 2, -0.5
*EQUATION
3
927, 3, 1.0, 557, 3, -0.5, 558, 3, -0.5
*EQUATION
3
928, 1, 1.0, 557, 1, -0.5, 559, 1, -0.5
*EQUATION
3
928, 2, 1.0, 557, 2, -0.5, 559, 2, -0.5
*EQUATION
3
928, 3, 1.0, 557, 3, -0.5, 559, 3, -0.5
*EQUATION
3
931, 1, 1.0, 559, 1, -0.5, 560, 1, -0.5
*EQUATION
3
931, 2, 1.0, 559, 2, -0.5, 560, 2, -0.5
*EQUATION
3
931, 3, 1.0, 559, 3, -0.5, 560, 3, -0.5
*EQUATION
3
932, 1, 1.0, 515, 1, -0.5, 516, 1, -0.5
*EQUATION
3
932, 2, 1.0, 515, 2, -0.5, 516, 2, -0.5
*EQUATION
3
932, 3, 1.0, 515, 3, -0.5, 516, 3, -0.5
*EQUATION
3
933, 1, 1.0, 515, 1, -0.5, 518, 1, -0.5
*EQUATION
3
933, 2, 1.0, 515, 2, -0.5, 518, 2, -0.5
*EQUATION
3
933, 3, 1.0, 515, 3, -0.5, 518, 3, -0.5
*EQUATION
5
934, 1, 1.0, 515, 1, -0.25, 518, 1, -0.25, 519, 1, -0.25, 516, 1, -0.25
*EQUATION
5
934, 2, 1.0, 515, 2, -0.25, 518, 2, -0.25, 519, 2, -0.25, 516, 2, -0.25
*EQUATION
5
934, 3, 1.0, 515, 3, -0.25, 518, 3, -0.25, 519, 3, -0.25, 516, 3, -0.25
*EQUATION
3
935, 1, 1.0, 516, 1, -0.5, 519, 1, -0.5
*EQUATION
3
935, 2, 1.0, 516, 2, -0.5, 519, 2, -0.5
*EQUATION
3
935, 3, 1.0, 516, 3, -0.5, 519, 3, -0.5
*EQUATION
3
936, 1, 1.0, 518, 1, -0.5, 519, 1, -0.5
*EQUATION
3
936, 2, 1.0, 518, 2, -0.5, 519, 2, -0.5
*EQUATION
3
936, 3, 1.0, 518, 3, -0.5, 519, 3, -0.5
*EQUATION
3
937, 1, 1.0, 515, 1, -0.5, 563, 1, -0.5
*EQUATION
3
937, 2, 1.0, 515, 2, -0.5, 563, 2, -0.5
*EQUATION
3
937, 3, 1.0, 515, 3, -0.5, 563, 3, -0.5
*EQUATION
5
938, 1, 1.0, 515, 1, -0.25, 563, 1, -0.25, 564, 1, -0.25, 516, 1, -0.25
*EQUATION
5
938, 2, 1.0, 515, 2, -0.25, 563, 2, -0.25, 564, 2, -0.25, 516, 2, -0.25
*EQUATION
5
938, 3, 1.0, 515, 3, -0.25, 563, 3, -0.25, 564, 3, -0.25, 516, 3, -0.25
*EQUATION
3
939, 1, 1.0, 516, 1, -0.5, 564, 1, -0.5
*EQUATION
3
939, 2, 1.0, 516, 2, -0.5, 564, 2, -0.5
*EQUATION
3
939, 3, 1.0, 516, 3, -0.5, 564, 3, -0.5
*EQUATION
5
940, 1, 1.0, 515, 1, -0.25, 563, 1, -0.25, 566, 1, -0.25, 518, 1, -0.25
*EQUATION
5
940, 2, 1.0, 515, 2, -0.25, 563, 2, -0.25, 566, 2, -0.25, 518, 2, -0.25
*EQUATION
5
940, 3, 1.0, 515, 3, -0.25, 563, 3, -0.25, 566, 3, -0.25, 518, 3, -0.25
*EQUATION
3
943, 1, 1.0, 518, 1, -0.5, 566, 1, -0.5
*EQUATION
3
943, 2, 1.0, 518, 2, -0.5, 566, 2, -0.5
*EQUATION
3
943, 3, 1.0, 518, 3, -0.5, 566, 3, -0.5
*EQUATION
5
944, 1, 1.0, 518, 1, -0.25, 566, 1, -0.25, 567, 1, -0.25, 519, 1, -0.25
*EQUATION
5
944, 2, 1.0, 518, 2, -0.25, 566, 2, -0.25, 567, 2, -0.25, 519, 2, -0.25
*EQUATION
5
944, 3, 1.0, 518, 3, -0.25, 566, 3, -0.25, 567, 3, -0.25, 519, 3, -0.25
*EQUATION
3
945, 1, 1.0, 519, 1, -0.5, 567, 1, -0.5
*EQUATION
3
945, 2, 1.0, 519, 2, -0.5, 567, 2, -0.5
*EQUATION
3
945, 3, 1.0, 519, 3, -0.5, 567, 3, -0.5
*EQUATION
3
946, 1, 1.0, 563, 1, -0.5, 564, 1, -0.5
*EQUATION
3
946, 2, 1.0, 563, 2, -0.5, 564, 2, -0.5
*EQUATION
3
946, 3, 1.0, 563, 3, -0.5, 564, 3, -0.5
*EQUATION
3
947, 1, 1.0, 563, 1, -0.5, 566, 1, -0.5
*EQUATION
3
947, 2, 1.0, 563, 2, -0.5, 566, 2, -0.5
*EQUATION
3
947, 3, 1.0, 563, 3, -0.5, 566, 3, -0.5
*EQUATION
3
950, 1, 1.0, 566, 1, -0.5, 567, 1, -0.5
*EQUATION
3
950, 2, 1.0, 566, 2, -0.5, 567, 2, -0.5
*EQUATION
3
950, 3, 1.0, 566, 3, -0.5, 567, 3, -0.5
*EQUATION
3
951, 1, 1.0, 524, 1, -0.5, 525, 1, -0.5
*EQUATION
3
951, 2, 1.0, 524, 2, -0.5, 525, 2, -0.5
*EQUATION
3
951, 3, 1.0, 524, 3, -0.5, 525, 3, -0.5
*EQUATION
3
952, 1, 1.0, 524, 1, -0.5, 527, 1, -0.5
*EQUATION
3
952, 2, 1.0, 524, 2, -0.5, 527, 2, -0.5
*EQUATION
3
952, 3, 1.0, 524, 3, -0.5, 527, 3, -0.5
*EQUATION
5
953, 1, 1.0, 524, 1, -0.25, 527, 1, -0.25, 528, 1, -0.25, 525, 1, -0.25
*EQUATION
5
953, 2, 1.0, 524, 2, -0.25, 527, 2, -0.25, 528, 2, -0.25, 525, 2, -0.25
*EQUATION
5
953, 3, 1.0, 524, 3, -0.25, 527, 3, -0.25, 528, 3, -0.25, 525, 3, -0.25
*EQUATION
3
954, 1, 1.0, 525, 1, -0.5, 528, 1, -0.5
*EQUATION
3
954, 2, 1.0, 525, 2, -0.5, 528, 2, -0.5
*EQUATION
3
954, 3, 1.0, 525, 3, -0.5, 528, 3, -0.5
*EQUATION
3
955, 1, 1.0, 527, 1, -0.5, 528, 1, -0.5
*EQUATION
3
955, 2, 1.0, 527, 2, -0.5, 528, 2, -0.5
*EQUATION
3
955, 3, 1.0, 527, 3, -0.5, 528, 3, -0.5
*EQUATION
3
956, 1, 1.0, 524, 1, -0.5, 572, 1, -0.5
*EQUATION
3
956, 2, 1.0, 524, 2, -0.5, 572, 2, -0.5
*EQUATION
3
956, 3, 1.0, 524, 3, -0.5, 572, 3, -0.5
*EQUATION
5
957, 1, 1.0, 524, 1, -0.25, 572, 1, -0.25, 573, 1, -0.25, 525, 1, -0.25
*EQUATION
5
957, 2, 1.0, 524, 2, -0.25, 572, 2, -0.25, 573, 2, -0.25, 525, 2, -0.25
*EQUATION
5
957, 3, 1.0, 524, 3, -0.25, 572, 3, -0.25, 573, 3, -0.25, 525, 3, -0.25
*EQUATION
3
958, 1, 1.0, 525, 1, -0.5, 573, 1, -0.5
*EQUATION
3
958, 2, 1.0, 525, 2, -0.5, 573, 2, -0.5
*EQUATION
3
958, 3, 1.0, 525, 3, -0.5, 573, 3, -0.5
*EQUATION
5
959, 1, 1.0, 524, 1, -0.25, 572, 1, -0.25, 575, 1, -0.25, 527, 1, -0.25
*EQUATION
5
959, 2, 1.0, 524, 2, -0.25, 572, 2, -0.25, 575, 2, -0.25, 527, 2, -0.25
*EQUATION
5
959, 3, 1.0, 524, 3, -0.25, 572, 3, -0.25, 575, 3, -0.25, 527, 3, -0.25
*EQUATION
3
962, 1, 1.0, 527, 1, -0.5, 575, 1, -0.5
*EQUATION
3
962, 2, 1.0, 527, 2, -0.5, 575, 2, -0.5
*EQUATION
3
962, 3, 1.0, 527, 3, -0.5, 575, 3, -0.5
*EQUATION
3
965, 1, 1.0, 572, 1, -0.5, 573, 1, -0.5
*EQUATION
3
965, 2, 1.0, 572, 2, -0.5, 573, 2, -0.5
*EQUATION
3
965, 3, 1.0, 572, 3, -0.5, 573, 3, -0.5
*EQUATION
3
966, 1, 1.0, 572, 1, -0.5, 575, 1, -0.5
*EQUATION
3
966, 2, 1.0, 572, 2, -0.5, 575, 2, -0.5
*EQUATION
3
966, 3, 1.0, 572, 3, -0.5, 575, 3, -0.5
*EQUATION
3
970, 1, 1.0, 547, 1, -0.5, 549, 1, -0.5
*EQUATION
3
970, 2, 1.0, 547, 2, -0.5, 549, 2, -0.5
*EQUATION
3
970, 3, 1.0, 547, 3, -0.5, 549, 3, -0.5
*EQUATION
3
971, 1, 1.0, 547, 1, -0.5, 548, 1, -0.5
*EQUATION
3
971, 2, 1.0, 547, 2, -0.5, 548, 2, -0.5
*EQUATION
3
971, 3, 1.0, 547, 3, -0.5, 548, 3, -0.5
*EQUATION
5
972, 1, 1.0, 547, 1, -0.25, 548, 1, -0.25, 550, 1, -0.25, 549, 1, -0.25
*EQUATION
5
972, 2, 1.0, 547, 2, -0.25, 548, 2, -0.25, 550, 2, -0.25, 549, 2, -0.25
*EQUATION
5
972, 3, 1.0, 547, 3, -0.25, 548, 3, -0.25, 550, 3, -0.25, 549, 3, -0.25
*EQUATION
3
973, 1, 1.0, 549, 1, -0.5, 550, 1, -0.5
*EQUATION
3
973, 2, 1.0, 549, 2, -0.5, 550, 2, -0.5
*EQUATION
3
973, 3, 1.0, 549, 3, -0.5, 550, 3, -0.5
*EQUATION
3
974, 1, 1.0, 548, 1, -0.5, 550, 1, -0.5
*EQUATION
3
974, 2, 1.0, 548, 2, -0.5, 550, 2, -0.5
*EQUATION
3
974, 3, 1.0, 548, 3, -0.5, 550, 3, -0.5
*EQUATION
3
984, 1, 1.0, 595, 1, -0.5, 597, 1, -0.5
*EQUATION
3
984, 2, 1.0, 595, 2, -0.5, 597, 2, -0.5
*EQUATION
3
984, 3, 1.0, 595, 3, -0.5, 597, 3, -0.5
*EQUATION
3
985, 1, 1.0, 595, 1, -0.5, 596, 1, -0.5
*EQUATION
3
985, 2, 1.0, 595, 2, -0.5, 596, 2, -0.5
*EQUATION
3
985, 3, 1.0, 595, 3, -0.5, 596, 3, -0.5
*EQUATION
5
986, 1, 1.0, 595, 1, -0.25, 596, 1, -0.25, 598, 1, -0.25, 597, 1, -0.25
*EQUATION
5
986, 2, 1.0, 595, 2, -0.25, 596, 2, -0.25, 598, 2, -0.25, 597, 2, -0.25
*EQUATION
5
986, 3, 1.0, 595, 3, -0.25, 596, 3, -0.25, 598, 3, -0.25, 597, 3, -0.25
*EQUATION
3
987, 1, 1.0, 597, 1, -0.5, 598, 1, -0.5
*EQUATION
3
987, 2, 1.0, 597, 2, -0.5, 598, 2, -0.5
*EQUATION
3
987, 3, 1.0, 597, 3, -0.5, 598, 3, -0.5
*EQUATION
3
988, 1, 1.0, 596, 1, -0.5, 598, 1, -0.5
*EQUATION
3
988, 2, 1.0, 596, 2, -0.5, 598, 2, -0.5
*EQUATION
3
988, 3, 1.0, 596, 3, -0.5, 598, 3, -0.5
*EQUATION
3
989, 1, 1.0, 549, 1, -0.5, 551, 1, -0.5
*EQUATION
3
989, 2, 1.0, 549, 2, -0.5, 551, 2, -0.5
*EQUATION
3
989, 3, 1.0, 549, 3, -0.5, 551, 3, -0.5
*EQUATION
5
990, 1, 1.0, 549, 1, -0.25, 550, 1, -0.25, 552, 1, -0.25, 551, 1, -0.25
*EQUATION
5
990, 2, 1.0, 549, 2, -0.25, 550, 2, -0.25, 552, 2, -0.25, 551, 2, -0.25
*EQUATION
5
990, 3, 1.0, 549, 3, -0.25, 550, 3, -0.25, 552, 3, -0.25, 551, 3, -0.25
*EQUATION
3
991, 1, 1.0, 551, 1, -0.5, 552, 1, -0.5
*EQUATION
3
991, 2, 1.0, 551, 2, -0.5, 552, 2, -0.5
*EQUATION
3
991, 3, 1.0, 551, 3, -0.5, 552, 3, -0.5
*EQUATION
3
992, 1, 1.0, 550, 1, -0.5, 552, 1, -0.5
*EQUATION
3
992, 2, 1.0, 550, 2, -0.5, 552, 2, -0.5
*EQUATION
3
992, 3, 1.0, 550, 3, -0.5, 552, 3, -0.5
*EQUATION
3
999, 1, 1.0, 597, 1, -0.5, 599, 1, -0.5
*EQUATION
3
999, 2, 1.0, 597, 2, -0.5, 599, 2, -0.5
*EQUATION
3
999, 3, 1.0, 597, 3, -0.5, 599, 3, -0.5
*EQUATION
5
1000, 1, 1.0, 597, 1, -0.25, 598, 1, -0.25, 600, 1, -0.25, 599, 1, -0.25
*EQUATION
5
1000, 2, 1.0, 597, 2, -0.25, 598, 2, -0.25, 600, 2, -0.25, 599, 2, -0.25
*EQUATION
5
1000, 3, 1.0, 597, 3, -0.25, 598, 3, -0.25, 600, 3, -0.25, 599, 3, -0.25
*EQUATION
3
1001, 1, 1.0, 599, 1, -0.5, 600, 1, -0.5
*EQUATION
3
1001, 2, 1.0, 599, 2, -0.5, 600, 2, -0.5
*EQUATION
3
1001, 3, 1.0, 599, 3, -0.5, 600, 3, -0.5
*EQUATION
3
1002, 1, 1.0, 598, 1, -0.5, 600, 1, -0.5
*EQUATION
3
1002, 2, 1.0, 598, 2, -0.5, 600, 2, -0.5
*EQUATION
3
1002, 3, 1.0, 598, 3, -0.5, 600, 3, -0.5
*EQUATION
3
1003, 1, 1.0, 548, 1, -0.5, 553, 1, -0.5
*EQUATION
3
1003, 2, 1.0, 548, 2, -0.5, 553, 2, -0.5
*EQUATION
3
1003, 3, 1.0, 548, 3, -0.5, 553, 3, -0.5
*EQUATION
5
1004, 1, 1.0, 548, 1, -0.25, 553, 1, -0.25, 554, 1, -0.25, 550, 1, -0.25
*EQUATION
5
1004, 2, 1.0, 548, 2, -0.25, 553, 2, -0.25, 554, 2, -0.25, 550, 2, -0.25
*EQUATION
5
1004, 3, 1.0, 548, 3, -0.25, 553, 3, -0.25, 554, 3, -0.25, 550, 3, -0.25
*EQUATION
3
1005, 1, 1.0, 550, 1, -0.5, 554, 1, -0.5
*EQUATION
3
1005, 2, 1.0, 550, 2, -0.5, 554, 2, -0.5
*EQUATION
3
1005, 3, 1.0, 550, 3, -0.5, 554, 3, -0.5
*EQUATION
3
1006, 1, 1.0, 553, 1, -0.5, 554, 1, -0.5
*EQUATION
3
1006, 2, 1.0, 553, 2, -0.5, 554, 2, -0.5
*EQUATION
3
1006, 3, 1.0, 553, 3, -0.5, 554, 3, -0.5
*EQUATION
3
1013, 1, 1.0, 596, 1, -0.5, 601, 1, -0.5
*EQUATION
3
1013, 2, 1.0, 596, 2, -0.5, 601, 2, -0.5
*EQUATION
3
1013, 3, 1.0, 596, 3, -0.5, 601, 3, -0.5
*EQUATION
5
1014, 1, 1.0, 596, 1, -0.25, 601, 1, -0.25, 602, 1, -0.25, 598, 1, -0.25
*EQUATION
5
1014, 2, 1.0, 596, 2, -0.25, 601, 2, -0.25, 602, 2, -0.25, 598, 2, -0.25
*EQUATION
5
1014, 3, 1.0, 596, 3, -0.25, 601, 3, -0.25, 602, 3, -0.25, 598, 3, -0.25
*EQUATION
3
1015, 1, 1.0, 598, 1, -0.5, 602, 1, -0.5
*EQUATION
3
1015, 2, 1.0, 598, 2, -0.5, 602, 2, -0.5
*EQUATION
3
1015, 3, 1.0, 598, 3, -0.5, 602, 3, -0.5
*EQUATION
3
1016, 1, 1.0, 601, 1, -0.5, 602, 1, -0.5
*EQUATION
3
1016, 2, 1.0, 601, 2, -0.5, 602, 2, -0.5
*EQUATION
3
1016, 3, 1.0, 601, 3, -0.5, 602, 3, -0.5
*EQUATION
5
1017, 1, 1.0, 550, 1, -0.25, 554, 1, -0.25, 555, 1, -0.25, 552, 1, -0.25
*EQUATION
5
1017, 2, 1.0, 550, 2, -0.25, 554, 2, -0.25, 555, 2, -0.25, 552, 2, -0.25
*EQUATION
5
1017, 3, 1.0, 550, 3, -0.25, 554, 3, -0.25, 555, 3, -0.25, 552, 3, -0.25
*EQUATION
3
1018, 1, 1.0, 552, 1, -0.5, 555, 1, -0.5
*EQUATION
3
1018, 2, 1.0, 552, 2, -0.5, 555, 2, -0.5
*EQUATION
3
1018, 3, 1.0, 552, 3, -0.5, 555, 3, -0.5
*EQUATION
3
1019, 1, 1.0, 554, 1, -0.5, 555, 1, -0.5
*EQUATION
3
1019, 2, 1.0, 554, 2, -0.5, 555, 2, -0.5
*EQUATION
3
1019, 3, 1.0, 554, 3, -0.5, 555, 3, -0.5
*EQUATION
5
1024, 1, 1.0, 598, 1, -0.25, 602, 1, -0.25, 603, 1, -0.25, 600, 1, -0.25
*EQUATION
5
1024, 2, 1.0, 598, 2, -0.25, 602, 2, -0.25, 603, 2, -0.25, 600, 2, -0.25
*EQUATION
5
1024, 3, 1.0, 598, 3, -0.25, 602, 3, -0.25, 603, 3, -0.25, 600, 3, -0.25
*EQUATION
3
1025, 1, 1.0, 600, 1, -0.5, 603, 1, -0.5
*EQUATION
3
1025, 2, 1.0, 600, 2, -0.5, 603, 2, -0.5
*EQUATION
3
1025, 3, 1.0, 600, 3, -0.5, 603, 3, -0.5
*EQUATION
3
1026, 1, 1.0, 602, 1, -0.5, 603, 1, -0.5
*EQUATION
3
1026, 2, 1.0, 602, 2, -0.5, 603, 2, -0.5
*EQUATION
3
1026, 3, 1.0, 602, 3, -0.5, 603, 3, -0.5
*EQUATION
3
1027, 1, 1.0, 553, 1, -0.5, 556, 1, -0.5
*EQUATION
3
1027, 2, 1.0, 553, 2, -0.5, 556, 2, -0.5
*EQUATION
3
1027, 3, 1.0, 553, 3, -0.5, 556, 3, -0.5
*EQUATION
5
1028, 1, 1.0, 553, 1, -0.25, 556, 1, -0.25, 557, 1, -0.25, 554, 1, -0.25
*EQUATION
5
1028, 2, 1.0, 553, 2, -0.25, 556, 2, -0.25, 557, 2, -0.25, 554, 2, -0.25
*EQUATION
5
1028, 3, 1.0, 553, 3, -0.25, 556, 3, -0.25, 557, 3, -0.25, 554, 3, -0.25
*EQUATION
3
1029, 1, 1.0, 554, 1, -0.5, 557, 1, -0.5
*EQUATION
3
1029, 2, 1.0, 554, 2, -0.5, 557, 2, -0.5
*EQUATION
3
1029, 3, 1.0, 554, 3, -0.5, 557, 3, -0.5
*EQUATION
3
1030, 1, 1.0, 556, 1, -0.5, 557, 1, -0.5
*EQUATION
3
1030, 2, 1.0, 556, 2, -0.5, 557, 2, -0.5
*EQUATION
3
1030, 3, 1.0, 556, 3, -0.5, 557, 3, -0.5
*EQUATION
3
1037, 1, 1.0, 601, 1, -0.5, 604, 1, -0.5
*EQUATION
3
1037, 2, 1.0, 601, 2, -0.5, 604, 2, -0.5
*EQUATION
3
1037, 3, 1.0, 601, 3, -0.5, 604, 3, -0.5
*EQUATION
5
1038, 1, 1.0, 601, 1, -0.25, 604, 1, -0.25, 605, 1, -0.25, 602, 1, -0.25
*EQUATION
5
1038, 2, 1.0, 601, 2, -0.25, 604, 2, -0.25, 605, 2, -0.25, 602, 2, -0.25
*EQUATION
5
1038, 3, 1.0, 601, 3, -0.25, 604, 3, -0.25, 605, 3, -0.25, 602, 3, -0.25
*EQUATION
3
1039, 1, 1.0, 602, 1, -0.5, 605, 1, -0.5
*EQUATION
3
1039, 2, 1.0, 602, 2, -0.5, 605, 2, -0.5
*EQUATION
3
1039, 3, 1.0, 602, 3, -0.5, 605, 3, -0.5
*EQUATION
3
1040, 1, 1.0, 604, 1, -0.5, 605, 1, -0.5
*EQUATION
3
1040, 2, 1.0, 604, 2, -0.5, 605, 2, -0.5
*EQUATION
3
1040, 3, 1.0, 604, 3, -0.5, 605, 3, -0.5
*EQUATION
5
1041, 1, 1.0, 554, 1, -0.25, 557, 1, -0.25, 558, 1, -0.25, 555, 1, -0.25
*EQUATION
5
1041, 2, 1.0, 554, 2, -0.25, 557, 2, -0.25, 558, 2, -0.25, 555, 2, -0.25
*EQUATION
5
1041, 3, 1.0, 554, 3, -0.25, 557, 3, -0.25, 558, 3, -0.25, 555, 3, -0.25
*EQUATION
3
1042, 1, 1.0, 555, 1, -0.5, 558, 1, -0.5
*EQUATION
3
1042, 2, 1.0, 555, 2, -0.5, 558, 2, -0.5
*EQUATION
3
1042, 3, 1.0, 555, 3, -0.5, 558, 3, -0.5
*EQUATION
5
1047, 1, 1.0, 602, 1, -0.25, 605, 1, -0.25, 606, 1, -0.25, 603, 1, -0.25
*EQUATION
5
1047, 2, 1.0, 602, 2, -0.25, 605, 2, -0.25, 606, 2, -0.25, 603, 2, -0.25
*EQUATION
5
1047, 3, 1.0, 602, 3, -0.25, 605, 3, -0.25, 606, 3, -0.25, 603, 3, -0.25
*EQUATION
3
1048, 1, 1.0, 603, 1, -0.5, 606, 1, -0.5
*EQUATION
3
1048, 2, 1.0, 603, 2, -0.5, 606, 2, -0.5
*EQUATION
3
1048, 3, 1.0, 603, 3, -0.5, 606, 3, -0.5
*EQUATION
3
1049, 1, 1.0, 605, 1, -0.5, 606, 1, -0.5
*EQUATION
3
1049, 2, 1.0, 605, 2, -0.5, 606, 2, -0.5
*EQUATION
3
1049, 3, 1.0, 605, 3, -0.5, 606, 3, -0.5
*EQUATION
3
1050, 1, 1.0, 539, 1, -0.5, 556, 1, -0.5
*EQUATION
3
1050, 2, 1.0, 539, 2, -0.5, 556, 2, -0.5
*EQUATION
3
1050, 3, 1.0, 539, 3, -0.5, 556, 3, -0.5
*EQUATION
5
1051, 1, 1.0, 556, 1, -0.25, 539, 1, -0.25, 559, 1, -0.25, 557, 1, -0.25
*EQUATION
5
1051, 2, 1.0, 556, 2, -0.25, 539, 2, -0.25, 559, 2, -0.25, 557, 2, -0.25
*EQUATION
5
1051, 3, 1.0, 556, 3, -0.25, 539, 3, -0.25, 559, 3, -0.25, 557, 3, -0.25
*EQUATION
3
1052, 1, 1.0, 539, 1, -0.5, 559, 1, -0.5
*EQUATION
3
1052, 2, 1.0, 539, 2, -0.5, 559, 2, -0.5
*EQUATION
3
1052, 3, 1.0, 539, 3, -0.5, 559, 3, -0.5
*EQUATION
3
1056, 1, 1.0, 539, 1, -0.5, 587, 1, -0.5
*EQUATION
3
1056, 2, 1.0, 539, 2, -0.5, 587, 2, -0.5
*EQUATION
3
1056, 3, 1.0, 539, 3, -0.5, 587, 3, -0.5
*EQUATION
3
1058, 1, 1.0, 559, 1, -0.5, 607, 1, -0.5
*EQUATION
3
1058, 2, 1.0, 559, 2, -0.5, 607, 2, -0.5
*EQUATION
3
1058, 3, 1.0, 559, 3, -0.5, 607, 3, -0.5
*EQUATION
3
1059, 1, 1.0, 587, 1, -0.5, 604, 1, -0.5
*EQUATION
3
1059, 2, 1.0, 587, 2, -0.5, 604, 2, -0.5
*EQUATION
3
1059, 3, 1.0, 587, 3, -0.5, 604, 3, -0.5
*EQUATION
5
1060, 1, 1.0, 604, 1, -0.25, 587, 1, -0.25, 607, 1, -0.25, 605, 1, -0.25
*EQUATION
5
1060, 2, 1.0, 604, 2, -0.25, 587, 2, -0.25, 607, 2, -0.25, 605, 2, -0.25
*EQUATION
5
1060, 3, 1.0, 604, 3, -0.25, 587, 3, -0.25, 607, 3, -0.25, 605, 3, -0.25
*EQUATION
3
1061, 1, 1.0, 605, 1, -0.5, 607, 1, -0.5
*EQUATION
3
1061, 2, 1.0, 605, 2, -0.5, 607, 2, -0.5
*EQUATION
3
1061, 3, 1.0, 605, 3, -0.5, 607, 3, -0.5
*EQUATION
3
1062, 1, 1.0, 587, 1, -0.5, 607, 1, -0.5
*EQUATION
3
1062, 2, 1.0, 587, 2, -0.5, 607, 2, -0.5
*EQUATION
3
1062, 3, 1.0, 587, 3, -0.5, 607, 3, -0.5
*EQUATION
5
1065, 1, 1.0, 559, 1, -0.25, 607, 1, -0.25, 608, 1, -0.25, 560, 1, -0.25
*EQUATION
5
1065, 2, 1.0, 559, 2, -0.25, 607, 2, -0.25, 608, 2, -0.25, 560, 2, -0.25
*EQUATION
5
1065, 3, 1.0, 559, 3, -0.25, 607, 3, -0.25, 608, 3, -0.25, 560, 3, -0.25
*EQUATION
3
1066, 1, 1.0, 560, 1, -0.5, 608, 1, -0.5
*EQUATION
3
1066, 2, 1.0, 560, 2, -0.5, 608, 2, -0.5
*EQUATION
3
1066, 3, 1.0, 560, 3, -0.5, 608, 3, -0.5
*EQUATION
5
1067, 1, 1.0, 605, 1, -0.25, 607, 1, -0.25, 608, 1, -0.25, 606, 1, -0.25
*EQUATION
5
1067, 2, 1.0, 605, 2, -0.25, 607, 2, -0.25, 608, 2, -0.25, 606, 2, -0.25
*EQUATION
5
1067, 3, 1.0, 605, 3, -0.25, 607, 3, -0.25, 608, 3, -0.25, 606, 3, -0.25
*EQUATION
3
1068, 1, 1.0, 606, 1, -0.5, 608, 1, -0.5
*EQUATION
3
1068, 2, 1.0, 606, 2, -0.5, 608, 2, -0.5
*EQUATION
3
1068, 3, 1.0, 606, 3, -0.5, 608, 3, -0.5
*EQUATION
3
1069, 1, 1.0, 607, 1, -0.5, 608, 1, -0.5
*EQUATION
3
1069, 2, 1.0, 607, 2, -0.5, 608, 2, -0.5
*EQUATION
3
1069, 3, 1.0, 607, 3, -0.5, 608, 3, -0.5
*EQUATION
3
1070, 1, 1.0, 539, 1, -0.5, 540, 1, -0.5
*EQUATION
3
1070, 2, 1.0, 539, 2, -0.5, 540, 2, -0.5
*EQUATION
3
1070, 3, 1.0, 539, 3, -0.5, 540, 3, -0.5
*EQUATION
5
1071, 1, 1.0, 539, 1, -0.25, 540, 1, -0.25, 561, 1, -0.25, 559, 1, -0.25
*EQUATION
5
1071, 2, 1.0, 539, 2, -0.25, 540, 2, -0.25, 561, 2, -0.25, 559, 2, -0.25
*EQUATION
5
1071, 3, 1.0, 539, 3, -0.25, 540, 3, -0.25, 561, 3, -0.25, 559, 3, -0.25
*EQUATION
3
1072, 1, 1.0, 559, 1, -0.5, 561, 1, -0.5
*EQUATION
3
1072, 2, 1.0, 559, 2, -0.5, 561, 2, -0.5
*EQUATION
3
1072, 3, 1.0, 559, 3, -0.5, 561, 3, -0.5
*EQUATION
3
1073, 1, 1.0, 540, 1, -0.5, 561, 1, -0.5
*EQUATION
3
1073, 2, 1.0, 540, 2, -0.5, 561, 2, -0.5
*EQUATION
3
1073, 3, 1.0, 540, 3, -0.5, 561, 3, -0.5
*EQUATION
5
1074, 1, 1.0, 539, 1, -0.25, 587, 1, -0.25, 588, 1, -0.25, 540, 1, -0.25
*EQUATION
5
1074, 2, 1.0, 539, 2, -0.25, 587, 2, -0.25, 588, 2, -0.25, 540, 2, -0.25
*EQUATION
5
1074, 3, 1.0, 539, 3, -0.25, 587, 3, -0.25, 588, 3, -0.25, 540, 3, -0.25
*EQUATION
5
1076, 1, 1.0, 559, 1, -0.25, 607, 1, -0.25, 609, 1, -0.25, 561, 1, -0.25
*EQUATION
5
1076, 2, 1.0, 559, 2, -0.25, 607, 2, -0.25, 609, 2, -0.25, 561, 2, -0.25
*EQUATION
5
1076, 3, 1.0, 559, 3, -0.25, 607, 3, -0.25, 609, 3, -0.25, 561, 3, -0.25
*EQUATION
3
1077, 1, 1.0, 540, 1, -0.5, 588, 1, -0.5
*EQUATION
3
1077, 2, 1.0, 540, 2, -0.5, 588, 2, -0.5
*EQUATION
3
1077, 3, 1.0, 540, 3, -0.5, 588, 3, -0.5
*EQUATION
3
1079, 1, 1.0, 561, 1, -0.5, 609, 1, -0.5
*EQUATION
3
1079, 2, 1.0, 561, 2, -0.5, 609, 2, -0.5
*EQUATION
3
1079, 3, 1.0, 561, 3, -0.5, 609, 3, -0.5
*EQUATION
3
1080, 1, 1.0, 587, 1, -0.5, 588, 1, -0.5
*EQUATION
3
1080, 2, 1.0, 587, 2, -0.5, 588, 2, -0.5
*EQUATION
3
1080, 3, 1.0, 587, 3, -0.5, 588, 3, -0.5
*EQUATION
5
1081, 1, 1.0, 587, 1, -0.25, 588, 1, -0.25, 609, 1, -0.25, 607, 1, -0.25
*EQUATION
5
1081, 2, 1.0, 587, 2, -0.25, 588, 2, -0.25, 609, 2, -0.25, 607, 2, -0.25
*EQUATION
5
1081, 3, 1.0, 587, 3, -0.25, 588, 3, -0.25, 609, 3, -0.25, 607, 3, -0.25
*EQUATION
3
1082, 1, 1.0, 607, 1, -0.5, 609, 1, -0.5
*EQUATION
3
1082, 2, 1.0, 607, 2, -0.5, 609, 2, -0.5
*EQUATION
3
1082, 3, 1.0, 607, 3, -0.5, 609, 3, -0.5
*EQUATION
3
1083, 1, 1.0, 588, 1, -0.5, 609, 1, -0.5
*EQUATION
3
1083, 2, 1.0, 588, 2, -0.5, 609, 2, -0.5
*EQUATION
3
1083, 3, 1.0, 588, 3, -0.5, 609, 3, -0.5
*EQUATION
3
1084, 1, 1.0, 540, 1, -0.5, 546, 1, -0.5
*EQUATION
3
1084, 2, 1.0, 540, 2, -0.5, 546, 2, -0.5
*EQUATION
3
1084, 3, 1.0, 540, 3, -0.5, 546, 3, -0.5
*EQUATION
5
1085, 1, 1.0, 540, 1, -0.25, 546, 1, -0.25, 563, 1, -0.25, 561, 1, -0.25
*EQUATION
5
1085, 2, 1.0, 540, 2, -0.25, 546, 2, -0.25, 563, 2, -0.25, 561, 2, -0.25
*EQUATION
5
1085, 3, 1.0, 540, 3, -0.25, 546, 3, -0.25, 563, 3, -0.25, 561, 3, -0.25
*EQUATION
3
1086, 1, 1.0, 561, 1, -0.5, 563, 1, -0.5
*EQUATION
3
1086, 2, 1.0, 561, 2, -0.5, 563, 2, -0.5
*EQUATION
3
1086, 3, 1.0, 561, 3, -0.5, 563, 3, -0.5
*EQUATION
3
1087, 1, 1.0, 546, 1, -0.5, 563, 1, -0.5
*EQUATION
3
1087, 2, 1.0, 546, 2, -0.5, 563, 2, -0.5
*EQUATION
3
1087, 3, 1.0, 546, 3, -0.5, 563, 3, -0.5
*EQUATION
5
1088, 1, 1.0, 540, 1, -0.25, 588, 1, -0.25, 594, 1, -0.25, 546, 1, -0.25
*EQUATION
5
1088, 2, 1.0, 540, 2, -0.25, 588, 2, -0.25, 594, 2, -0.25, 546, 2, -0.25
*EQUATION
5
1088, 3, 1.0, 540, 3, -0.25, 588, 3, -0.25, 594, 3, -0.25, 546, 3, -0.25
*EQUATION
5
1090, 1, 1.0, 561, 1, -0.25, 609, 1, -0.25, 611, 1, -0.25, 563, 1, -0.25
*EQUATION
5
1090, 2, 1.0, 561, 2, -0.25, 609, 2, -0.25, 611, 2, -0.25, 563, 2, -0.25
*EQUATION
5
1090, 3, 1.0, 561, 3, -0.25, 609, 3, -0.25, 611, 3, -0.25, 563, 3, -0.25
*EQUATION
3
1091, 1, 1.0, 546, 1, -0.5, 594, 1, -0.5
*EQUATION
3
1091, 2, 1.0, 546, 2, -0.5, 594, 2, -0.5
*EQUATION
3
1091, 3, 1.0, 546, 3, -0.5, 594, 3, -0.5
*EQUATION
3
1093, 1, 1.0, 563, 1, -0.5, 611, 1, -0.5
*EQUATION
3
1093, 2, 1.0, 563, 2, -0.5, 611, 2, -0.5
*EQUATION
3
1093, 3, 1.0, 563, 3, -0.5, 611, 3, -0.5
*EQUATION
3
1094, 1, 1.0, 588, 1, -0.5, 594, 1, -0.5
*EQUATION
3
1094, 2, 1.0, 588, 2, -0.5, 594, 2, -0.5
*EQUATION
3
1094, 3, 1.0, 588, 3, -0.5, 594, 3, -0.5
*EQUATION
5
1095, 1, 1.0, 588, 1, -0.25, 594, 1, -0.25, 611, 1, -0.25, 609, 1, -0.25
*EQUATION
5
1095, 2, 1.0, 588, 2, -0.25, 594, 2, -0.25, 611, 2, -0.25, 609, 2, -0.25
*EQUATION
5
1095, 3, 1.0, 588, 3, -0.25, 594, 3, -0.25, 611, 3, -0.25, 609, 3, -0.25
*EQUATION
3
1096, 1, 1.0, 609, 1, -0.5, 611, 1, -0.5
*EQUATION
3
1096, 2, 1.0, 609, 2, -0.5, 611, 2, -0.5
*EQUATION
3
1096, 3, 1.0, 609, 3, -0.5, 611, 3, -0.5
*EQUATION
3
1097, 1, 1.0, 594, 1, -0.5, 611, 1, -0.5
*EQUATION
3
1097, 2, 1.0, 594, 2, -0.5, 611, 2, -0.5
*EQUATION
3
1097, 3, 1.0, 594, 3, -0.5, 611, 3, -0.5
*EQUATION
3
1098, 1, 1.0, 546, 1, -0.5, 565, 1, -0.5
*EQUATION
3
1098, 2, 1.0, 546, 2, -0.5, 565, 2, -0.5
*EQUATION
3
1098, 3, 1.0, 546, 3, -0.5, 565, 3, -0.5
*EQUATION
5
1099, 1, 1.0, 546, 1, -0.25, 565, 1, -0.25, 566, 1, -0.25, 563, 1, -0.25
*EQUATION
5
1099, 2, 1.0, 546, 2, -0.25, 565, 2, -0.25, 566, 2, -0.25, 563, 2, -0.25
*EQUATION
5
1099, 3, 1.0, 546, 3, -0.25, 565, 3, -0.25, 566, 3, -0.25, 563, 3, -0.25
*EQUATION
3
1100, 1, 1.0, 565, 1, -0.5, 566, 1, -0.5
*EQUATION
3
1100, 2, 1.0, 565, 2, -0.5, 566, 2, -0.5
*EQUATION
3
1100, 3, 1.0, 565, 3, -0.5, 566, 3, -0.5
*EQUATION
3
1107, 1, 1.0, 594, 1, -0.5, 613, 1, -0.5
*EQUATION
3
1107, 2, 1.0, 594, 2, -0.5, 613, 2, -0.5
*EQUATION
3
1107, 3, 1.0, 594, 3, -0.5, 613, 3, -0.5
*EQUATION
5
1108, 1, 1.0, 594, 1, -0.25, 613, 1, -0.25, 614, 1, -0.25, 611, 1, -0.25
*EQUATION
5
1108, 2, 1.0, 594, 2, -0.25, 613, 2, -0.25, 614, 2, -0.25, 611, 2, -0.25
*EQUATION
5
1108, 3, 1.0, 594, 3, -0.25, 613, 3, -0.25, 614, 3, -0.25, 611, 3, -0.25
*EQUATION
3
1109, 1, 1.0, 611, 1, -0.5, 614, 1, -0.5
*EQUATION
3
1109, 2, 1.0, 611, 2, -0.5, 614, 2, -0.5
*EQUATION
3
1109, 3, 1.0, 611, 3, -0.5, 614, 3, -0.5
*EQUATION
3
1110, 1, 1.0, 613, 1, -0.5, 614, 1, -0.5
*EQUATION
3
1110, 2, 1.0, 613, 2, -0.5, 614, 2, -0.5
*EQUATION
3
1110, 3, 1.0, 613, 3, -0.5, 614, 3, -0.5
*EQUATION
5
1111, 1, 1.0, 563, 1, -0.25, 611, 1, -0.25, 612, 1, -0.25, 564, 1, -0.25
*EQUATION
5
1111, 2, 1.0, 563, 2, -0.25, 611, 2, -0.25, 612, 2, -0.25, 564, 2, -0.25
*EQUATION
5
1111, 3, 1.0, 563, 3, -0.25, 611, 3, -0.25, 612, 3, -0.25, 564, 3, -0.25
*EQUATION
3
1112, 1, 1.0, 564, 1, -0.5, 612, 1, -0.5
*EQUATION
3
1112, 2, 1.0, 564, 2, -0.5, 612, 2, -0.5
*EQUATION
3
1112, 3, 1.0, 564, 3, -0.5, 612, 3, -0.5
*EQUATION
3
1117, 1, 1.0, 611, 1, -0.5, 612, 1, -0.5
*EQUATION
3
1117, 2, 1.0, 611, 2, -0.5, 612, 2, -0.5
*EQUATION
3
1117, 3, 1.0, 611, 3, -0.5, 612, 3, -0.5
*EQUATION
5
1118, 1, 1.0, 611, 1, -0.25, 614, 1, -0.25, 615, 1, -0.25, 612, 1, -0.25
*EQUATION
5
1118, 2, 1.0, 611, 2, -0.25, 614, 2, -0.25, 615, 2, -0.25, 612, 2, -0.25
*EQUATION
5
1118, 3, 1.0, 611, 3, -0.25, 614, 3, -0.25, 615, 3, -0.25, 612, 3, -0.25
*EQUATION
3
1119, 1, 1.0, 612, 1, -0.5, 615, 1, -0.5
*EQUATION
3
1119, 2, 1.0, 612, 2, -0.5, 615, 2, -0.5
*EQUATION
3
1119, 3, 1.0, 612, 3, -0.5, 615, 3, -0.5
*EQUATION
3
1120, 1, 1.0, 614, 1, -0.5, 615, 1, -0.5
*EQUATION
3
1120, 2, 1.0, 614, 2, -0.5, 615, 2, -0.5
*EQUATION
3
1120, 3, 1.0, 614, 3, -0.5, 615, 3, -0.5
*EQUATION
3
1121, 1, 1.0, 565, 1, -0.5, 568, 1, -0.5
*EQUATION
3
1121, 2, 1.0, 565, 2, -0.5, 568, 2, -0.5
*EQUATION
3
1121, 3, 1.0, 565, 3, -0.5, 568, 3, -0.5
*EQUATION
5
1122, 1, 1.0, 565, 1, -0.25, 568, 1, -0.25, 569, 1, -0.25, 566, 1, -0.25
*EQUATION
5
1122, 2, 1.0, 565, 2, -0.25, 568, 2, -0.25, 569, 2, -0.25, 566, 2, -0.25
*EQUATION
5
1122, 3, 1.0, 565, 3, -0.25, 568, 3, -0.25, 569, 3, -0.25, 566, 3, -0.25
*EQUATION
3
1123, 1, 1.0, 566, 1, -0.5, 569, 1, -0.5
*EQUATION
3
1123, 2, 1.0, 566, 2, -0.5, 569, 2, -0.5
*EQUATION
3
1123, 3, 1.0, 566, 3, -0.5, 569, 3, -0.5
*EQUATION
3
1124, 1, 1.0, 568, 1, -0.5, 569, 1, -0.5
*EQUATION
3
1124, 2, 1.0, 568, 2, -0.5, 569, 2, -0.5
*EQUATION
3
1124, 3, 1.0, 568, 3, -0.5, 569, 3, -0.5
*EQUATION
3
1131, 1, 1.0, 613, 1, -0.5, 616, 1, -0.5
*EQUATION
3
1131, 2, 1.0, 613, 2, -0.5, 616, 2, -0.5
*EQUATION
3
1131, 3, 1.0, 613, 3, -0.5, 616, 3, -0.5
*EQUATION
5
1132, 1, 1.0, 613, 1, -0.25, 616, 1, -0.25, 617, 1, -0.25, 614, 1, -0.25
*EQUATION
5
1132, 2, 1.0, 613, 2, -0.25, 616, 2, -0.25, 617, 2, -0.25, 614, 2, -0.25
*EQUATION
5
1132, 3, 1.0, 613, 3, -0.25, 616, 3, -0.25, 617, 3, -0.25, 614, 3, -0.25
*EQUATION
3
1133, 1, 1.0, 614, 1, -0.5, 617, 1, -0.5
*EQUATION
3
1133, 2, 1.0, 614, 2, -0.5, 617, 2, -0.5
*EQUATION
3
1133, 3, 1.0, 614, 3, -0.5, 617, 3, -0.5
*EQUATION
3
1134, 1, 1.0, 616, 1, -0.5, 617, 1, -0.5
*EQUATION
3
1134, 2, 1.0, 616, 2, -0.5, 617, 2, -0.5
*EQUATION
3
1134, 3, 1.0, 616, 3, -0.5, 617, 3, -0.5
*EQUATION
5
1135, 1, 1.0, 566, 1, -0.25, 569, 1, -0.25, 570, 1, -0.25, 567, 1, -0.25
*EQUATION
5
1135, 2, 1.0, 566, 2, -0.25, 569, 2, -0.25, 570, 2, -0.25, 567, 2, -0.25
*EQUATION
5
1135, 3, 1.0, 566, 3, -0.25, 569, 3, -0.25, 570, 3, -0.25, 567, 3, -0.25
*EQUATION
3
1136, 1, 1.0, 567, 1, -0.5, 570, 1, -0.5
*EQUATION
3
1136, 2, 1.0, 567, 2, -0.5, 570, 2, -0.5
*EQUATION
3
1136, 3, 1.0, 567, 3, -0.5, 570, 3, -0.5
*EQUATION
3
1137, 1, 1.0, 569, 1, -0.5, 570, 1, -0.5
*EQUATION
3
1137, 2, 1.0, 569, 2, -0.5, 570, 2, -0.5
*EQUATION
3
1137, 3, 1.0, 569, 3, -0.5, 570, 3, -0.5
*EQUATION
5
1142, 1, 1.0, 614, 1, -0.25, 617, 1, -0.25, 618, 1, -0.25, 615, 1, -0.25
*EQUATION
5
1142, 2, 1.0, 614, 2, -0.25, 617, 2, -0.25, 618, 2, -0.25, 615, 2, -0.25
*EQUATION
5
1142, 3, 1.0, 614, 3, -0.25, 617, 3, -0.25, 618, 3, -0.25, 615, 3, -0.25
*EQUATION
3
1143, 1, 1.0, 615, 1, -0.5, 618, 1, -0.5
*EQUATION
3
1143, 2, 1.0, 615, 2, -0.5, 618, 2, -0.5
*EQUATION
3
1143, 3, 1.0, 615, 3, -0.5, 618, 3, -0.5
*EQUATION
3
1144, 1, 1.0, 617, 1, -0.5, 618, 1, -0.5
*EQUATION
3
1144, 2, 1.0, 617, 2, -0.5, 618, 2, -0.5
*EQUATION
3
1144, 3, 1.0, 617, 3, -0.5, 618, 3, -0.5
*EQUATION
3
1145, 1, 1.0, 568, 1, -0.5, 571, 1, -0.5
*EQUATION
3
1145, 2, 1.0, 568, 2, -0.5, 571, 2, -0.5
*EQUATION
3
1145, 3, 1.0, 568, 3, -0.5, 571, 3, -0.5
*EQUATION
5
1146, 1, 1.0, 568, 1, -0.25, 571, 1, -0.25, 572, 1, -0.25, 569, 1, -0.25
*EQUATION
5
1146, 2, 1.0, 568, 2, -0.25, 571, 2, -0.25, 572, 2, -0.25, 569, 2, -0.25
*EQUATION
5
1146, 3, 1.0, 568, 3, -0.25, 571, 3, -0.25, 572, 3, -0.25, 569, 3, -0.25
*EQUATION
3
1147, 1, 1.0, 569, 1, -0.5, 572, 1, -0.5
*EQUATION
3
1147, 2, 1.0, 569, 2, -0.5, 572, 2, -0.5
*EQUATION
3
1147, 3, 1.0, 569, 3, -0.5, 572, 3, -0.5
*EQUATION
3
1148, 1, 1.0, 571, 1, -0.5, 572, 1, -0.5
*EQUATION
3
1148, 2, 1.0, 571, 2, -0.5, 572, 2, -0.5
*EQUATION
3
1148, 3, 1.0, 571, 3, -0.5, 572, 3, -0.5
*EQUATION
3
1155, 1, 1.0, 616, 1, -0.5, 619, 1, -0.5
*EQUATION
3
1155, 2, 1.0, 616, 2, -0.5, 619, 2, -0.5
*EQUATION
3
1155, 3, 1.0, 616, 3, -0.5, 619, 3, -0.5
*EQUATION
5
1156, 1, 1.0, 616, 1, -0.25, 619, 1, -0.25, 620, 1, -0.25, 617, 1, -0.25
*EQUATION
5
1156, 2, 1.0, 616, 2, -0.25, 619, 2, -0.25, 620, 2, -0.25, 617, 2, -0.25
*EQUATION
5
1156, 3, 1.0, 616, 3, -0.25, 619, 3, -0.25, 620, 3, -0.25, 617, 3, -0.25
*EQUATION
3
1157, 1, 1.0, 617, 1, -0.5, 620, 1, -0.5
*EQUATION
3
1157, 2, 1.0, 617, 2, -0.5, 620, 2, -0.5
*EQUATION
3
1157, 3, 1.0, 617, 3, -0.5, 620, 3, -0.5
*EQUATION
3
1158, 1, 1.0, 619, 1, -0.5, 620, 1, -0.5
*EQUATION
3
1158, 2, 1.0, 619, 2, -0.5, 620, 2, -0.5
*EQUATION
3
1158, 3, 1.0, 619, 3, -0.5, 620, 3, -0.5
*EQUATION
5
1159, 1, 1.0, 569, 1, -0.25, 572, 1, -0.25, 573, 1, -0.25, 570, 1, -0.25
*EQUATION
5
1159, 2, 1.0, 569, 2, -0.25, 572, 2, -0.25, 573, 2, -0.25, 570, 2, -0.25
*EQUATION
5
1159, 3, 1.0, 569, 3, -0.25, 572, 3, -0.25, 573, 3, -0.25, 570, 3, -0.25
*EQUATION
3
1160, 1, 1.0, 570, 1, -0.5, 573, 1, -0.5
*EQUATION
3
1160, 2, 1.0, 570, 2, -0.5, 573, 2, -0.5
*EQUATION
3
1160, 3, 1.0, 570, 3, -0.5, 573, 3, -0.5
*EQUATION
5
1165, 1, 1.0, 617, 1, -0.25, 620, 1, -0.25, 621, 1, -0.25, 618, 1, -0.25
*EQUATION
5
1165, 2, 1.0, 617, 2, -0.25, 620, 2, -0.25, 621, 2, -0.25, 618, 2, -0.25
*EQUATION
5
1165, 3, 1.0, 617, 3, -0.25, 620, 3, -0.25, 621, 3, -0.25, 618, 3, -0.25
*EQUATION
3
1166, 1, 1.0, 618, 1, -0.5, 621, 1, -0.5
*EQUATION
3
1166, 2, 1.0, 618, 2, -0.5, 621, 2, -0.5
*EQUATION
3
1166, 3, 1.0, 618, 3, -0.5, 621, 3, -0.5
*EQUATION
3
1167, 1, 1.0, 620, 1, -0.5, 621, 1, -0.5
*EQUATION
3
1167, 2, 1.0, 620, 2, -0.5, 621, 2, -0.5
*EQUATION
3
1167, 3, 1.0, 620, 3, -0.5, 621, 3, -0.5
*EQUATION
3
1168, 1, 1.0, 571, 1, -0.5, 574, 1, -0.5
*EQUATION
3
1168, 2, 1.0, 571, 2, -0.5, 574, 2, -0.5
*EQUATION
3
1168, 3, 1.0, 571, 3, -0.5, 574, 3, -0.5
*EQUATION
5
1169, 1, 1.0, 571, 1, -0.25, 574, 1, -0.25, 575, 1, -0.25, 572, 1, -0.25
*EQUATION
5
1169, 2, 1.0, 571, 2, -0.25, 574, 2, -0.25, 575, 2, -0.25, 572, 2, -0.25
*EQUATION
5
1169, 3, 1.0, 571, 3, -0.25, 574, 3, -0.25, 575, 3, -0.25, 572, 3, -0.25
*EQUATION
3
1170, 1, 1.0, 574, 1, -0.5, 575, 1, -0.5
*EQUATION
3
1170, 2, 1.0, 574, 2, -0.5, 575, 2, -0.5
*EQUATION
3
1170, 3, 1.0, 574, 3, -0.5, 575, 3, -0.5
*EQUATION
3
1177, 1, 1.0, 619, 1, -0.5, 622, 1, -0.5
*EQUATION
3
1177, 2, 1.0, 619, 2, -0.5, 622, 2, -0.5
*EQUATION
3
1177, 3, 1.0, 619, 3, -0.5, 622, 3, -0.5
*EQUATION
5
1178, 1, 1.0, 619, 1, -0.25, 622, 1, -0.25, 623, 1, -0.25, 620, 1, -0.25
*EQUATION
5
1178, 2, 1.0, 619, 2, -0.25, 622, 2, -0.25, 623, 2, -0.25, 620, 2, -0.25
*EQUATION
5
1178, 3, 1.0, 619, 3, -0.25, 622, 3, -0.25, 623, 3, -0.25, 620, 3, -0.25
*EQUATION
3
1179, 1, 1.0, 620, 1, -0.5, 623, 1, -0.5
*EQUATION
3
1179, 2, 1.0, 620, 2, -0.5, 623, 2, -0.5
*EQUATION
3
1179, 3, 1.0, 620, 3, -0.5, 623, 3, -0.5
*EQUATION
3
1180, 1, 1.0, 622, 1, -0.5, 623, 1, -0.5
*EQUATION
3
1180, 2, 1.0, 622, 2, -0.5, 623, 2, -0.5
*EQUATION
3
1180, 3, 1.0, 622, 3, -0.5, 623, 3, -0.5
*EQUATION
5
1185, 1, 1.0, 620, 1, -0.25, 623, 1, -0.25, 624, 1, -0.25, 621, 1, -0.25
*EQUATION
5
1185, 2, 1.0, 620, 2, -0.25, 623, 2, -0.25, 624, 2, -0.25, 621, 2, -0.25
*EQUATION
5
1185, 3, 1.0, 620, 3, -0.25, 623, 3, -0.25, 624, 3, -0.25, 621, 3, -0.25
*EQUATION
3
1186, 1, 1.0, 621, 1, -0.5, 624, 1, -0.5
*EQUATION
3
1186, 2, 1.0, 621, 2, -0.5, 624, 2, -0.5
*EQUATION
3
1186, 3, 1.0, 621, 3, -0.5, 624, 3, -0.5
*EQUATION
3
1187, 1, 1.0, 623, 1, -0.5, 624, 1, -0.5
*EQUATION
3
1187, 2, 1.0, 623, 2, -0.5, 624, 2, -0.5
*EQUATION
3
1187, 3, 1.0, 623, 3, -0.5, 624, 3, -0.5
*BOUNDARY
CLAMP, 1, 3, 0.0
*STEP
*STATIC
*CLOAD
887, 3, -454.545454545
888, 3, -454.545454545
891, 3, -454.545454545
894, 3, -454.545454545
896, 3, -454.545454545
898, 3, -454.545454545
900, 3, -454.545454545
903, 3, -454.545454545
906, 3, -454.545454545
909, 3, -454.545454545
912, 3, -454.545454545
*NODE FILE
U
*EL FILE
S, ENER
*NODE PRINT, NSET=TIP_TOP
U
*NODE PRINT, NSET=CLAMP
RF
*EL PRINT, ELSET=EALL
ELSE
*ENERGY PRINT
*END STEP
