*HEADING
T06 S-LIN hanging 8-split zz cycle 2
units: mm, N, s, MPa. Material is illustrative steel, not a coupon card.
E=210000.0 nu=0.3. load -5000.0 N on TIP_TOP.
*NODE, NSET=NALL
1, 0, -10, 0
2, 111.111111111, -10, 0
3, 111.111111111, 0, 0
4, 0, 0, 0
5, 0, -10, 28
6, 111.111111111, -10, 28
7, 111.111111111, 0, 28
8, 0, 0, 28
9, 0, -10, 56
10, 111.111111111, -10, 56
11, 111.111111111, 0, 56
12, 0, 0, 56
13, 0, -10, 84
14, 111.111111111, -10, 84
15, 111.111111111, 0, 84
16, 0, 0, 84
17, 0, -10, 112
18, 111.111111111, -10, 112
19, 111.111111111, 0, 112
20, 0, 0, 112
** ... 2340 like lines cut
*ELEMENT, TYPE=C3D8, ELSET=EALL
1, 1, 2, 3, 4, 5, 6, 7, 8
2, 5, 6, 7, 8, 9, 10, 11, 12
3, 9, 10, 11, 12, 13, 14, 15, 16
4, 13, 14, 15, 16, 17, 18, 19, 20
5, 17, 18, 19, 20, 21, 22, 23, 24
6, 4, 3, 25, 26, 8, 7, 27, 28
7, 8, 7, 27, 28, 12, 11, 29, 30
8, 12, 11, 29, 30, 16, 15, 31, 32
9, 16, 15, 31, 32, 20, 19, 33, 34
10, 20, 19, 33, 34, 24, 23, 35, 36
11, 37, 38, 39, 40, 41, 42, 43, 44
12, 41, 42, 43, 44, 45, 46, 47, 48
13, 40, 39, 49, 50, 44, 43, 51, 52
14, 44, 43, 51, 52, 48, 47, 53, 54
15, 50, 49, 55, 56, 52, 51, 57, 58
16, 52, 51, 57, 58, 54, 53, 59, 60
17, 56, 55, 22, 21, 58, 57, 61, 62
18, 58, 57, 61, 62, 60, 59, 63, 64
19, 21, 22, 23, 24, 62, 61, 65, 66
20, 62, 61, 65, 66, 64, 63, 67, 68
** ... 1514 like lines cut
*NSET, NSET=CLAMP
1, 4, 5, 8, 9, 12, 13, 16, 17, 20, 21, 24, 26, 28, 30, 32
34, 36, 37, 40, 41, 44, 45, 48, 50, 52, 54, 56, 58, 60, 62, 64
66, 68, 70, 72, 74, 76, 78, 80, 82, 84, 86, 88, 90, 92, 94, 96
*NSET, NSET=TIP_TOP
887, 888, 891, 894, 896, 898, 900, 903, 906, 909, 912, 1478, 1495, 1512, 1522, 1536
1556, 1573, 1590, 2353, 2360
*MATERIAL, NAME=STEEL
*ELASTIC
210000, 0.3
*SOLID SECTION, ELSET=EALL, MATERIAL=STEEL
*EQUATION
3
916, 1, 1.0, 645, 1, -0.5, 646, 1, -0.5
*EQUATION
3
916, 2, 1.0, 645, 2, -0.5, 646, 2, -0.5
*EQUATION
3
916, 3, 1.0, 645, 3, -0.5, 646, 3, -0.5
*EQUATION
3
920, 1, 1.0, 645, 1, -0.5, 693, 1, -0.5
*EQUATION
3
920, 2, 1.0, 645, 2, -0.5, 693, 2, -0.5
*EQUATION
3
920, 3, 1.0, 645, 3, -0.5, 693, 3, -0.5
*EQUATION
5
923, 1, 1.0, 645, 1, -0.25, 693, 1, -0.25, 694, 1, -0.25, 646, 1, -0.25
*EQUATION
5
923, 2, 1.0, 645, 2, -0.25, 693, 2, -0.25, 694, 2, -0.25, 646, 2, -0.25
*EQUATION
5
923, 3, 1.0, 645, 3, -0.25, 693, 3, -0.25, 694, 3, -0.25, 646, 3, -0.25
*EQUATION
3
926, 1, 1.0, 646, 1, -0.5, 694, 1, -0.5
*EQUATION
3
926, 2, 1.0, 646, 2, -0.5, 694, 2, -0.5
*EQUATION
3
926, 3, 1.0, 646, 3, -0.5, 694, 3, -0.5
*EQUATION
3
930, 1, 1.0, 693, 1, -0.5, 694, 1, -0.5
*EQUATION
3
930, 2, 1.0, 693, 2, -0.5, 694, 2, -0.5
*EQUATION
3
930, 3, 1.0, 693, 3, -0.5, 694, 3, -0.5
*EQUATION
3
934, 1, 1.0, 646, 1, -0.5, 650, 1, -0.5
*EQUATION
3
934, 2, 1.0, 646, 2, -0.5, 650, 2, -0.5
*EQUATION
3
934, 3, 1.0, 646, 3, -0.5, 650, 3, -0.5
*EQUATION
5
938, 1, 1.0, 646, 1, -0.25, 694, 1, -0.25, 698, 1, -0.25, 650, 1, -0.25
*EQUATION
5
938, 2, 1.0, 646, 2, -0.25, 694, 2, -0.25, 698, 2, -0.25, 650, 2, -0.25
*EQUATION
5
938, 3, 1.0, 646, 3, -0.25, 694, 3, -0.25, 698, 3, -0.25, 650, 3, -0.25
*EQUATION
3
941, 1, 1.0, 650, 1, -0.5, 698, 1, -0.5
*EQUATION
3
941, 2, 1.0, 650, 2, -0.5, 698, 2, -0.5
*EQUATION
3
941, 3, 1.0, 650, 3, -0.5, 698, 3, -0.5
*EQUATION
3
944, 1, 1.0, 694, 1, -0.5, 698, 1, -0.5
*EQUATION
3
944, 2, 1.0, 694, 2, -0.5, 698, 2, -0.5
*EQUATION
3
944, 3, 1.0, 694, 3, -0.5, 698, 3, -0.5
*EQUATION
3
949, 1, 1.0, 652, 1, -0.5, 653, 1, -0.5
*EQUATION
3
949, 2, 1.0, 652, 2, -0.5, 653, 2, -0.5
*EQUATION
3
949, 3, 1.0, 652, 3, -0.5, 653, 3, -0.5
*EQUATION
3
953, 1, 1.0, 652, 1, -0.5, 700, 1, -0.5
*EQUATION
3
953, 2, 1.0, 652, 2, -0.5, 700, 2, -0.5
*EQUATION
3
953, 3, 1.0, 652, 3, -0.5, 700, 3, -0.5
*EQUATION
5
954, 1, 1.0, 652, 1, -0.25, 700, 1, -0.25, 701, 1, -0.25, 653, 1, -0.25
*EQUATION
5
954, 2, 1.0, 652, 2, -0.25, 700, 2, -0.25, 701, 2, -0.25, 653, 2, -0.25
*EQUATION
5
954, 3, 1.0, 652, 3, -0.25, 700, 3, -0.25, 701, 3, -0.25, 653, 3, -0.25
*EQUATION
3
955, 1, 1.0, 653, 1, -0.5, 701, 1, -0.5
*EQUATION
3
955, 2, 1.0, 653, 2, -0.5, 701, 2, -0.5
*EQUATION
3
955, 3, 1.0, 653, 3, -0.5, 701, 3, -0.5
*EQUATION
3
959, 1, 1.0, 700, 1, -0.5, 701, 1, -0.5
*EQUATION
3
959, 2, 1.0, 700, 2, -0.5, 701, 2, -0.5
*EQUATION
3
959, 3, 1.0, 700, 3, -0.5, 701, 3, -0.5
*EQUATION
3
961, 1, 1.0, 653, 1, -0.5, 655, 1, -0.5
*EQUATION
3
961, 2, 1.0, 653, 2, -0.5, 655, 2, -0.5
*EQUATION
3
961, 3, 1.0, 653, 3, -0.5, 655, 3, -0.5
*EQUATION
3
964, 1, 1.0, 655, 1, -0.5, 656, 1, -0.5
*EQUATION
3
964, 2, 1.0, 655, 2, -0.5, 656, 2, -0.5
*EQUATION
3
964, 3, 1.0, 655, 3, -0.5, 656, 3, -0.5
*EQUATION
5
967, 1, 1.0, 653, 1, -0.25, 701, 1, -0.25, 703, 1, -0.25, 655, 1, -0.25
*EQUATION
5
967, 2, 1.0, 653, 2, -0.25, 701, 2, -0.25, 703, 2, -0.25, 655, 2, -0.25
*EQUATION
5
967, 3, 1.0, 653, 3, -0.25, 701, 3, -0.25, 703, 3, -0.25, 655, 3, -0.25
*EQUATION
3
970, 1, 1.0, 655, 1, -0.5, 703, 1, -0.5
*EQUATION
3
970, 2, 1.0, 655, 2, -0.5, 703, 2, -0.5
*EQUATION
3
970, 3, 1.0, 655, 3, -0.5, 703, 3, -0.5
*EQUATION
3
974, 1, 1.0, 701, 1, -0.5, 703, 1, -0.5
*EQUATION
3
974, 2, 1.0, 701, 2, -0.5, 703, 2, -0.5
*EQUATION
3
974, 3, 1.0, 701, 3, -0.5, 703, 3, -0.5
*EQUATION
3
991, 1, 1.0, 665, 1, -0.5, 713, 1, -0.5
*EQUATION
3
991, 2, 1.0, 665, 2, -0.5, 713, 2, -0.5
*EQUATION
3
991, 3, 1.0, 665, 3, -0.5, 713, 3, -0.5
*EQUATION
3
992, 1, 1.0, 709, 1, -0.5, 710, 1, -0.5
*EQUATION
3
992, 2, 1.0, 709, 2, -0.5, 710, 2, -0.5
*EQUATION
3
992, 3, 1.0, 709, 3, -0.5, 710, 3, -0.5
*EQUATION
3
999, 1, 1.0, 665, 1, -0.5, 668, 1, -0.5
*EQUATION
3
999, 2, 1.0, 665, 2, -0.5, 668, 2, -0.5
*EQUATION
3
999, 3, 1.0, 665, 3, -0.5, 668, 3, -0.5
*EQUATION
5
1003, 1, 1.0, 665, 1, -0.25, 713, 1, -0.25, 716, 1, -0.25, 668, 1, -0.25
*EQUATION
5
1003, 2, 1.0, 665, 2, -0.25, 713, 2, -0.25, 716, 2, -0.25, 668, 2, -0.25
*EQUATION
5
1003, 3, 1.0, 665, 3, -0.25, 713, 3, -0.25, 716, 3, -0.25, 668, 3, -0.25
*EQUATION
3
1006, 1, 1.0, 668, 1, -0.5, 716, 1, -0.5
*EQUATION
3
1006, 2, 1.0, 668, 2, -0.5, 716, 2, -0.5
*EQUATION
3
1006, 3, 1.0, 668, 3, -0.5, 716, 3, -0.5
*EQUATION
3
1009, 1, 1.0, 713, 1, -0.5, 716, 1, -0.5
*EQUATION
3
1009, 2, 1.0, 713, 2, -0.5, 716, 2, -0.5
*EQUATION
3
1009, 3, 1.0, 713, 3, -0.5, 716, 3, -0.5
*EQUATION
3
1013, 1, 1.0, 668, 1, -0.5, 671, 1, -0.5
*EQUATION
3
1013, 2, 1.0, 668, 2, -0.5, 671, 2, -0.5
*EQUATION
3
1013, 3, 1.0, 668, 3, -0.5, 671, 3, -0.5
*EQUATION
5
1017, 1, 1.0, 668, 1, -0.25, 716, 1, -0.25, 719, 1, -0.25, 671, 1, -0.25
*EQUATION
5
1017, 2, 1.0, 668, 2, -0.25, 716, 2, -0.25, 719, 2, -0.25, 671, 2, -0.25
*EQUATION
5
1017, 3, 1.0, 668, 3, -0.25, 716, 3, -0.25, 719, 3, -0.25, 671, 3, -0.25
*EQUATION
3
1020, 1, 1.0, 671, 1, -0.5, 719, 1, -0.5
*EQUATION
3
1020, 2, 1.0, 671, 2, -0.5, 719, 2, -0.5
*EQUATION
3
1020, 3, 1.0, 671, 3, -0.5, 719, 3, -0.5
*EQUATION
3
1023, 1, 1.0, 716, 1, -0.5, 719, 1, -0.5
*EQUATION
3
1023, 2, 1.0, 716, 2, -0.5, 719, 2, -0.5
*EQUATION
3
1023, 3, 1.0, 716, 3, -0.5, 719, 3, -0.5
*EQUATION
3
1039, 1, 1.0, 693, 1, -0.5, 695, 1, -0.5
*EQUATION
3
1039, 2, 1.0, 693, 2, -0.5, 695, 2, -0.5
*EQUATION
3
1039, 3, 1.0, 693, 3, -0.5, 695, 3, -0.5
*EQUATION
5
1040, 1, 1.0, 693, 1, -0.25, 694, 1, -0.25, 696, 1, -0.25, 695, 1, -0.25
*EQUATION
5
1040, 2, 1.0, 693, 2, -0.25, 694, 2, -0.25, 696, 2, -0.25, 695, 2, -0.25
*EQUATION
5
1040, 3, 1.0, 693, 3, -0.25, 694, 3, -0.25, 696, 3, -0.25, 695, 3, -0.25
*EQUATION
3
1041, 1, 1.0, 695, 1, -0.5, 696, 1, -0.5
*EQUATION
3
1041, 2, 1.0, 695, 2, -0.5, 696, 2, -0.5
*EQUATION
3
1041, 3, 1.0, 695, 3, -0.5, 696, 3, -0.5
*EQUATION
3
1042, 1, 1.0, 694, 1, -0.5, 696, 1, -0.5
*EQUATION
3
1042, 2, 1.0, 694, 2, -0.5, 696, 2, -0.5
*EQUATION
3
1042, 3, 1.0, 694, 3, -0.5, 696, 3, -0.5
*EQUATION
5
1063, 1, 1.0, 694, 1, -0.25, 698, 1, -0.25, 699, 1, -0.25, 696, 1, -0.25
*EQUATION
5
1063, 2, 1.0, 694, 2, -0.25, 698, 2, -0.25, 699, 2, -0.25, 696, 2, -0.25
*EQUATION
5
1063, 3, 1.0, 694, 3, -0.25, 698, 3, -0.25, 699, 3, -0.25, 696, 3, -0.25
*EQUATION
3
1064, 1, 1.0, 696, 1, -0.5, 699, 1, -0.5
*EQUATION
3
1064, 2, 1.0, 696, 2, -0.5, 699, 2, -0.5
*EQUATION
3
1064, 3, 1.0, 696, 3, -0.5, 699, 3, -0.5
*EQUATION
3
1065, 1, 1.0, 698, 1, -0.5, 699, 1, -0.5
*EQUATION
3
1065, 2, 1.0, 698, 2, -0.5, 699, 2, -0.5
*EQUATION
3
1065, 3, 1.0, 698, 3, -0.5, 699, 3, -0.5
*EQUATION
3
1076, 1, 1.0, 700, 1, -0.5, 748, 1, -0.5
*EQUATION
3
1076, 2, 1.0, 700, 2, -0.5, 748, 2, -0.5
*EQUATION
3
1076, 3, 1.0, 700, 3, -0.5, 748, 3, -0.5
*EQUATION
5
1077, 1, 1.0, 700, 1, -0.25, 748, 1, -0.25, 749, 1, -0.25, 701, 1, -0.25
*EQUATION
5
1077, 2, 1.0, 700, 2, -0.25, 748, 2, -0.25, 749, 2, -0.25, 701, 2, -0.25
*EQUATION
5
1077, 3, 1.0, 700, 3, -0.25, 748, 3, -0.25, 749, 3, -0.25, 701, 3, -0.25
*EQUATION
3
1078, 1, 1.0, 701, 1, -0.5, 749, 1, -0.5
*EQUATION
3
1078, 2, 1.0, 701, 2, -0.5, 749, 2, -0.5
*EQUATION
3
1078, 3, 1.0, 701, 3, -0.5, 749, 3, -0.5
*EQUATION
3
1082, 1, 1.0, 748, 1, -0.5, 749, 1, -0.5
*EQUATION
3
1082, 2, 1.0, 748, 2, -0.5, 749, 2, -0.5
*EQUATION
3
1082, 3, 1.0, 748, 3, -0.5, 749, 3, -0.5
*EQUATION
5
1092, 1, 1.0, 701, 1, -0.25, 749, 1, -0.25, 751, 1, -0.25, 703, 1, -0.25
*EQUATION
5
1092, 2, 1.0, 701, 2, -0.25, 749, 2, -0.25, 751, 2, -0.25, 703, 2, -0.25
*EQUATION
5
1092, 3, 1.0, 701, 3, -0.25, 749, 3, -0.25, 751, 3, -0.25, 703, 3, -0.25
*EQUATION
3
1095, 1, 1.0, 703, 1, -0.5, 751, 1, -0.5
*EQUATION
3
1095, 2, 1.0, 703, 2, -0.5, 751, 2, -0.5
*EQUATION
3
1095, 3, 1.0, 703, 3, -0.5, 751, 3, -0.5
*EQUATION
3
1098, 1, 1.0, 749, 1, -0.5, 751, 1, -0.5
*EQUATION
3
1098, 2, 1.0, 749, 2, -0.5, 751, 2, -0.5
*EQUATION
3
1098, 3, 1.0, 749, 3, -0.5, 751, 3, -0.5
*EQUATION
3
1103, 1, 1.0, 707, 1, -0.5, 710, 1, -0.5
*EQUATION
3
1103, 2, 1.0, 707, 2, -0.5, 710, 2, -0.5
*EQUATION
3
1103, 3, 1.0, 707, 3, -0.5, 710, 3, -0.5
*EQUATION
3
1107, 1, 1.0, 707, 1, -0.5, 755, 1, -0.5
*EQUATION
3
1107, 2, 1.0, 707, 2, -0.5, 755, 2, -0.5
*EQUATION
3
1107, 3, 1.0, 707, 3, -0.5, 755, 3, -0.5
*EQUATION
5
1110, 1, 1.0, 707, 1, -0.25, 755, 1, -0.25, 758, 1, -0.25, 710, 1, -0.25
*EQUATION
5
1110, 2, 1.0, 707, 2, -0.25, 755, 2, -0.25, 758, 2, -0.25, 710, 2, -0.25
*EQUATION
5
1110, 3, 1.0, 707, 3, -0.25, 755, 3, -0.25, 758, 3, -0.25, 710, 3, -0.25
*EQUATION
3
1113, 1, 1.0, 710, 1, -0.5, 758, 1, -0.5
*EQUATION
3
1113, 2, 1.0, 710, 2, -0.5, 758, 2, -0.5
*EQUATION
3
1113, 3, 1.0, 710, 3, -0.5, 758, 3, -0.5
*EQUATION
3
1117, 1, 1.0, 755, 1, -0.5, 758, 1, -0.5
*EQUATION
3
1117, 2, 1.0, 755, 2, -0.5, 758, 2, -0.5
*EQUATION
3
1117, 3, 1.0, 755, 3, -0.5, 758, 3, -0.5
*EQUATION
3
1121, 1, 1.0, 709, 1, -0.5, 757, 1, -0.5
*EQUATION
3
1121, 2, 1.0, 709, 2, -0.5, 757, 2, -0.5
*EQUATION
3
1121, 3, 1.0, 709, 3, -0.5, 757, 3, -0.5
*EQUATION
5
1122, 1, 1.0, 709, 1, -0.25, 757, 1, -0.25, 758, 1, -0.25, 710, 1, -0.25
*EQUATION
5
1122, 2, 1.0, 709, 2, -0.25, 757, 2, -0.25, 758, 2, -0.25, 710, 2, -0.25
*EQUATION
5
1122, 3, 1.0, 709, 3, -0.25, 757, 3, -0.25, 758, 3, -0.25, 710, 3, -0.25
*EQUATION
3
1129, 1, 1.0, 757, 1, -0.5, 758, 1, -0.5
*EQUATION
3
1129, 2, 1.0, 757, 2, -0.5, 758, 2, -0.5
*EQUATION
3
1129, 3, 1.0, 757, 3, -0.5, 758, 3, -0.5
*EQUATION
3
1136, 1, 1.0, 713, 1, -0.5, 714, 1, -0.5
*EQUATION
3
1136, 2, 1.0, 713, 2, -0.5, 714, 2, -0.5
*EQUATION
3
1136, 3, 1.0, 713, 3, -0.5, 714, 3, -0.5
*EQUATION
5
1154, 1, 1.0, 713, 1, -0.25, 716, 1, -0.25, 717, 1, -0.25, 714, 1, -0.25
*EQUATION
5
1154, 2, 1.0, 713, 2, -0.25, 716, 2, -0.25, 717, 2, -0.25, 714, 2, -0.25
*EQUATION
5
1154, 3, 1.0, 713, 3, -0.25, 716, 3, -0.25, 717, 3, -0.25, 714, 3, -0.25
*EQUATION
3
1155, 1, 1.0, 714, 1, -0.5, 717, 1, -0.5
*EQUATION
3
1155, 2, 1.0, 714, 2, -0.5, 717, 2, -0.5
*EQUATION
3
1155, 3, 1.0, 714, 3, -0.5, 717, 3, -0.5
*EQUATION
3
1156, 1, 1.0, 716, 1, -0.5, 717, 1, -0.5
*EQUATION
3
1156, 2, 1.0, 716, 2, -0.5, 717, 2, -0.5
*EQUATION
3
1156, 3, 1.0, 716, 3, -0.5, 717, 3, -0.5
*EQUATION
5
1174, 1, 1.0, 716, 1, -0.25, 719, 1, -0.25, 720, 1, -0.25, 717, 1, -0.25
*EQUATION
5
1174, 2, 1.0, 716, 2, -0.25, 719, 2, -0.25, 720, 2, -0.25, 717, 2, -0.25
*EQUATION
5
1174, 3, 1.0, 716, 3, -0.25, 719, 3, -0.25, 720, 3, -0.25, 717, 3, -0.25
*EQUATION
3
1175, 1, 1.0, 717, 1, -0.5, 720, 1, -0.5
*EQUATION
3
1175, 2, 1.0, 717, 2, -0.5, 720, 2, -0.5
*EQUATION
3
1175, 3, 1.0, 717, 3, -0.5, 720, 3, -0.5
*EQUATION
3
1176, 1, 1.0, 719, 1, -0.5, 720, 1, -0.5
*EQUATION
3
1176, 2, 1.0, 719, 2, -0.5, 720, 2, -0.5
*EQUATION
3
1176, 3, 1.0, 719, 3, -0.5, 720, 3, -0.5
*EQUATION
3
1228, 1, 1.0, 748, 1, -0.5, 796, 1, -0.5
*EQUATION
3
1228, 2, 1.0, 748, 2, -0.5, 796, 2, -0.5
*EQUATION
3
1228, 3, 1.0, 748, 3, -0.5, 796, 3, -0.5
*EQUATION
5
1229, 1, 1.0, 748, 1, -0.25, 796, 1, -0.25, 797, 1, -0.25, 749, 1, -0.25
*EQUATION
5
1229, 2, 1.0, 748, 2, -0.25, 796, 2, -0.25, 797, 2, -0.25, 749, 2, -0.25
*EQUATION
5
1229, 3, 1.0, 748, 3, -0.25, 796, 3, -0.25, 797, 3, -0.25, 749, 3, -0.25
*EQUATION
3
1230, 1, 1.0, 749, 1, -0.5, 797, 1, -0.5
*EQUATION
3
1230, 2, 1.0, 749, 2, -0.5, 797, 2, -0.5
*EQUATION
3
1230, 3, 1.0, 749, 3, -0.5, 797, 3, -0.5
*EQUATION
3
1234, 1, 1.0, 796, 1, -0.5, 797, 1, -0.5
*EQUATION
3
1234, 2, 1.0, 796, 2, -0.5, 797, 2, -0.5
*EQUATION
3
1234, 3, 1.0, 796, 3, -0.5, 797, 3, -0.5
*EQUATION
5
1242, 1, 1.0, 749, 1, -0.25, 797, 1, -0.25, 799, 1, -0.25, 751, 1, -0.25
*EQUATION
5
1242, 2, 1.0, 749, 2, -0.25, 797, 2, -0.25, 799, 2, -0.25, 751, 2, -0.25
*EQUATION
5
1242, 3, 1.0, 749, 3, -0.25, 797, 3, -0.25, 799, 3, -0.25, 751, 3, -0.25
*EQUATION
3
1245, 1, 1.0, 751, 1, -0.5, 799, 1, -0.5
*EQUATION
3
1245, 2, 1.0, 751, 2, -0.5, 799, 2, -0.5
*EQUATION
3
1245, 3, 1.0, 751, 3, -0.5, 799, 3, -0.5
*EQUATION
3
1248, 1, 1.0, 797, 1, -0.5, 799, 1, -0.5
*EQUATION
3
1248, 2, 1.0, 797, 2, -0.5, 799, 2, -0.5
*EQUATION
3
1248, 3, 1.0, 797, 3, -0.5, 799, 3, -0.5
*EQUATION
3
1252, 1, 1.0, 755, 1, -0.5, 803, 1, -0.5
*EQUATION
3
1252, 2, 1.0, 755, 2, -0.5, 803, 2, -0.5
*EQUATION
3
1252, 3, 1.0, 755, 3, -0.5, 803, 3, -0.5
*EQUATION
5
1255, 1, 1.0, 755, 1, -0.25, 803, 1, -0.25, 806, 1, -0.25, 758, 1, -0.25
*EQUATION
5
1255, 2, 1.0, 755, 2, -0.25, 803, 2, -0.25, 806, 2, -0.25, 758, 2, -0.25
*EQUATION
5
1255, 3, 1.0, 755, 3, -0.25, 803, 3, -0.25, 806, 3, -0.25, 758, 3, -0.25
*EQUATION
3
1258, 1, 1.0, 758, 1, -0.5, 806, 1, -0.5
*EQUATION
3
1258, 2, 1.0, 758, 2, -0.5, 806, 2, -0.5
*EQUATION
3
1258, 3, 1.0, 758, 3, -0.5, 806, 3, -0.5
*EQUATION
3
1262, 1, 1.0, 803, 1, -0.5, 806, 1, -0.5
*EQUATION
3
1262, 2, 1.0, 803, 2, -0.5, 806, 2, -0.5
*EQUATION
3
1262, 3, 1.0, 803, 3, -0.5, 806, 3, -0.5
*EQUATION
3
1266, 1, 1.0, 757, 1, -0.5, 805, 1, -0.5
*EQUATION
3
1266, 2, 1.0, 757, 2, -0.5, 805, 2, -0.5
*EQUATION
3
1266, 3, 1.0, 757, 3, -0.5, 805, 3, -0.5
*EQUATION
5
1267, 1, 1.0, 757, 1, -0.25, 805, 1, -0.25, 806, 1, -0.25, 758, 1, -0.25
*EQUATION
5
1267, 2, 1.0, 757, 2, -0.25, 805, 2, -0.25, 806, 2, -0.25, 758, 2, -0.25
*EQUATION
5
1267, 3, 1.0, 757, 3, -0.25, 805, 3, -0.25, 806, 3, -0.25, 758, 3, -0.25
*EQUATION
3
1274, 1, 1.0, 805, 1, -0.5, 806, 1, -0.5
*EQUATION
3
1274, 2, 1.0, 805, 2, -0.5, 806, 2, -0.5
*EQUATION
3
1274, 3, 1.0, 805, 3, -0.5, 806, 3, -0.5
*EQUATION
3
1364, 1, 1.0, 796, 1, -0.5, 844, 1, -0.5
*EQUATION
3
1364, 2, 1.0, 796, 2, -0.5, 844, 2, -0.5
*EQUATION
3
1364, 3, 1.0, 796, 3, -0.5, 844, 3, -0.5
*EQUATION
5
1365, 1, 1.0, 796, 1, -0.25, 844, 1, -0.25, 845, 1, -0.25, 797, 1, -0.25
*EQUATION
5
1365, 2, 1.0, 796, 2, -0.25, 844, 2, -0.25, 845, 2, -0.25, 797, 2, -0.25
*EQUATION
5
1365, 3, 1.0, 796, 3, -0.25, 844, 3, -0.25, 845, 3, -0.25, 797, 3, -0.25
*EQUATION
3
1366, 1, 1.0, 797, 1, -0.5, 845, 1, -0.5
*EQUATION
3
1366, 2, 1.0, 797, 2, -0.5, 845, 2, -0.5
*EQUATION
3
1366, 3, 1.0, 797, 3, -0.5, 845, 3, -0.5
*EQUATION
3
1370, 1, 1.0, 844, 1, -0.5, 845, 1, -0.5
*EQUATION
3
1370, 2, 1.0, 844, 2, -0.5, 845, 2, -0.5
*EQUATION
3
1370, 3, 1.0, 844, 3, -0.5, 845, 3, -0.5
*EQUATION
5
1378, 1, 1.0, 797, 1, -0.25, 845, 1, -0.25, 847, 1, -0.25, 799, 1, -0.25
*EQUATION
5
1378, 2, 1.0, 797, 2, -0.25, 845, 2, -0.25, 847, 2, -0.25, 799, 2, -0.25
*EQUATION
5
1378, 3, 1.0, 797, 3, -0.25, 845, 3, -0.25, 847, 3, -0.25, 799, 3, -0.25
*EQUATION
3
1381, 1, 1.0, 799, 1, -0.5, 847, 1, -0.5
*EQUATION
3
1381, 2, 1.0, 799, 2, -0.5, 847, 2, -0.5
*EQUATION
3
1381, 3, 1.0, 799, 3, -0.5, 847, 3, -0.5
*EQUATION
3
1384, 1, 1.0, 845, 1, -0.5, 847, 1, -0.5
*EQUATION
3
1384, 2, 1.0, 845, 2, -0.5, 847, 2, -0.5
*EQUATION
3
1384, 3, 1.0, 845, 3, -0.5, 847, 3, -0.5
*EQUATION
3
1388, 1, 1.0, 803, 1, -0.5, 851, 1, -0.5
*EQUATION
3
1388, 2, 1.0, 803, 2, -0.5, 851, 2, -0.5
*EQUATION
3
1388, 3, 1.0, 803, 3, -0.5, 851, 3, -0.5
*EQUATION
5
1391, 1, 1.0, 803, 1, -0.25, 851, 1, -0.25, 854, 1, -0.25, 806, 1, -0.25
*EQUATION
5
1391, 2, 1.0, 803, 2, -0.25, 851, 2, -0.25, 854, 2, -0.25, 806, 2, -0.25
*EQUATION
5
1391, 3, 1.0, 803, 3, -0.25, 851, 3, -0.25, 854, 3, -0.25, 806, 3, -0.25
*EQUATION
3
1394, 1, 1.0, 806, 1, -0.5, 854, 1, -0.5
*EQUATION
3
1394, 2, 1.0, 806, 2, -0.5, 854, 2, -0.5
*EQUATION
3
1394, 3, 1.0, 806, 3, -0.5, 854, 3, -0.5
*EQUATION
3
1398, 1, 1.0, 851, 1, -0.5, 854, 1, -0.5
*EQUATION
3
1398, 2, 1.0, 851, 2, -0.5, 854, 2, -0.5
*EQUATION
3
1398, 3, 1.0, 851, 3, -0.5, 854, 3, -0.5
*EQUATION
3
1402, 1, 1.0, 805, 1, -0.5, 853, 1, -0.5
*EQUATION
3
1402, 2, 1.0, 805, 2, -0.5, 853, 2, -0.5
*EQUATION
3
1402, 3, 1.0, 805, 3, -0.5, 853, 3, -0.5
*EQUATION
5
1403, 1, 1.0, 805, 1, -0.25, 853, 1, -0.25, 854, 1, -0.25, 806, 1, -0.25
*EQUATION
5
1403, 2, 1.0, 805, 2, -0.25, 853, 2, -0.25, 854, 2, -0.25, 806, 2, -0.25
*EQUATION
5
1403, 3, 1.0, 805, 3, -0.25, 853, 3, -0.25, 854, 3, -0.25, 806, 3, -0.25
*EQUATION
3
1410, 1, 1.0, 853, 1, -0.5, 854, 1, -0.5
*EQUATION
3
1410, 2, 1.0, 853, 2, -0.5, 854, 2, -0.5
*EQUATION
3
1410, 3, 1.0, 853, 3, -0.5, 854, 3, -0.5
*EQUATION
3
1500, 1, 1.0, 844, 1, -0.5, 892, 1, -0.5
*EQUATION
3
1500, 2, 1.0, 844, 2, -0.5, 892, 2, -0.5
*EQUATION
3
1500, 3, 1.0, 844, 3, -0.5, 892, 3, -0.5
*EQUATION
5
1501, 1, 1.0, 844, 1, -0.25, 892, 1, -0.25, 893, 1, -0.25, 845, 1, -0.25
*EQUATION
5
1501, 2, 1.0, 844, 2, -0.25, 892, 2, -0.25, 893, 2, -0.25, 845, 2, -0.25
*EQUATION
5
1501, 3, 1.0, 844, 3, -0.25, 892, 3, -0.25, 893, 3, -0.25, 845, 3, -0.25
*EQUATION
3
1502, 1, 1.0, 845, 1, -0.5, 893, 1, -0.5
*EQUATION
3
1502, 2, 1.0, 845, 2, -0.5, 893, 2, -0.5
*EQUATION
3
1502, 3, 1.0, 845, 3, -0.5, 893, 3, -0.5
*EQUATION
3
1506, 1, 1.0, 892, 1, -0.5, 893, 1, -0.5
*EQUATION
3
1506, 2, 1.0, 892, 2, -0.5, 893, 2, -0.5
*EQUATION
3
1506, 3, 1.0, 892, 3, -0.5, 893, 3, -0.5
*EQUATION
5
1514, 1, 1.0, 845, 1, -0.25, 893, 1, -0.25, 895, 1, -0.25, 847, 1, -0.25
*EQUATION
5
1514, 2, 1.0, 845, 2, -0.25, 893, 2, -0.25, 895, 2, -0.25, 847, 2, -0.25
*EQUATION
5
1514, 3, 1.0, 845, 3, -0.25, 893, 3, -0.25, 895, 3, -0.25, 847, 3, -0.25
*EQUATION
3
1517, 1, 1.0, 847, 1, -0.5, 895, 1, -0.5
*EQUATION
3
1517, 2, 1.0, 847, 2, -0.5, 895, 2, -0.5
*EQUATION
3
1517, 3, 1.0, 847, 3, -0.5, 895, 3, -0.5
*EQUATION
3
1520, 1, 1.0, 893, 1, -0.5, 895, 1, -0.5
*EQUATION
3
1520, 2, 1.0, 893, 2, -0.5, 895, 2, -0.5
*EQUATION
3
1520, 3, 1.0, 893, 3, -0.5, 895, 3, -0.5
*EQUATION
3
1524, 1, 1.0, 851, 1, -0.5, 899, 1, -0.5
*EQUATION
3
1524, 2, 1.0, 851, 2, -0.5, 899, 2, -0.5
*EQUATION
3
1524, 3, 1.0, 851, 3, -0.5, 899, 3, -0.5
*EQUATION
5
1527, 1, 1.0, 851, 1, -0.25, 899, 1, -0.25, 902, 1, -0.25, 854, 1, -0.25
*EQUATION
5
1527, 2, 1.0, 851, 2, -0.25, 899, 2, -0.25, 902, 2, -0.25, 854, 2, -0.25
*EQUATION
5
1527, 3, 1.0, 851, 3, -0.25, 899, 3, -0.25, 902, 3, -0.25, 854, 3, -0.25
*EQUATION
3
1530, 1, 1.0, 854, 1, -0.5, 902, 1, -0.5
*EQUATION
3
1530, 2, 1.0, 854, 2, -0.5, 902, 2, -0.5
*EQUATION
3
1530, 3, 1.0, 854, 3, -0.5, 902, 3, -0.5
*EQUATION
3
1534, 1, 1.0, 899, 1, -0.5, 902, 1, -0.5
*EQUATION
3
1534, 2, 1.0, 899, 2, -0.5, 902, 2, -0.5
*EQUATION
3
1534, 3, 1.0, 899, 3, -0.5, 902, 3, -0.5
*EQUATION
3
1538, 1, 1.0, 853, 1, -0.5, 901, 1, -0.5
*EQUATION
3
1538, 2, 1.0, 853, 2, -0.5, 901, 2, -0.5
*EQUATION
3
1538, 3, 1.0, 853, 3, -0.5, 901, 3, -0.5
*EQUATION
5
1539, 1, 1.0, 853, 1, -0.25, 901, 1, -0.25, 902, 1, -0.25, 854, 1, -0.25
*EQUATION
5
1539, 2, 1.0, 853, 2, -0.25, 901, 2, -0.25, 902, 2, -0.25, 854, 2, -0.25
*EQUATION
5
1539, 3, 1.0, 853, 3, -0.25, 901, 3, -0.25, 902, 3, -0.25, 854, 3, -0.25
*EQUATION
3
1546, 1, 1.0, 901, 1, -0.5, 902, 1, -0.5
*EQUATION
3
1546, 2, 1.0, 901, 2, -0.5, 902, 2, -0.5
*EQUATION
3
1546, 3, 1.0, 901, 3, -0.5, 902, 3, -0.5
*EQUATION
3
1592, 1, 1.0, 403, 1, -0.5, 405, 1, -0.5
*EQUATION
3
1592, 2, 1.0, 403, 2, -0.5, 405, 2, -0.5
*EQUATION
3
1592, 3, 1.0, 403, 3, -0.5, 405, 3, -0.5
*EQUATION
3
1593, 1, 1.0, 403, 1, -0.5, 404, 1, -0.5
*EQUATION
3
1593, 2, 1.0, 403, 2, -0.5, 404, 2, -0.5
*EQUATION
3
1593, 3, 1.0, 403, 3, -0.5, 404, 3, -0.5
*EQUATION
5
1594, 1, 1.0, 403, 1, -0.25, 404, 1, -0.25, 406, 1, -0.25, 405, 1, -0.25
*EQUATION
5
1594, 2, 1.0, 403, 2, -0.25, 404, 2, -0.25, 406, 2, -0.25, 405, 2, -0.25
*EQUATION
5
1594, 3, 1.0, 403, 3, -0.25, 404, 3, -0.25, 406, 3, -0.25, 405, 3, -0.25
*EQUATION
3
1595, 1, 1.0, 405, 1, -0.5, 406, 1, -0.5
*EQUATION
3
1595, 2, 1.0, 405, 2, -0.5, 406, 2, -0.5
*EQUATION
3
1595, 3, 1.0, 405, 3, -0.5, 406, 3, -0.5
*EQUATION
3
1596, 1, 1.0, 404, 1, -0.5, 406, 1, -0.5
*EQUATION
3
1596, 2, 1.0, 404, 2, -0.5, 406, 2, -0.5
*EQUATION
3
1596, 3, 1.0, 404, 3, -0.5, 406, 3, -0.5
*EQUATION
3
1599, 1, 1.0, 405, 1, -0.5, 453, 1, -0.5
*EQUATION
3
1599, 2, 1.0, 405, 2, -0.5, 453, 2, -0.5
*EQUATION
3
1599, 3, 1.0, 405, 3, -0.5, 453, 3, -0.5
*EQUATION
5
1602, 1, 1.0, 405, 1, -0.25, 453, 1, -0.25, 454, 1, -0.25, 406, 1, -0.25
*EQUATION
5
1602, 2, 1.0, 405, 2, -0.25, 453, 2, -0.25, 454, 2, -0.25, 406, 2, -0.25
*EQUATION
5
1602, 3, 1.0, 405, 3, -0.25, 453, 3, -0.25, 454, 3, -0.25, 406, 3, -0.25
*EQUATION
3
1605, 1, 1.0, 406, 1, -0.5, 454, 1, -0.5
*EQUATION
3
1605, 2, 1.0, 406, 2, -0.5, 454, 2, -0.5
*EQUATION
3
1605, 3, 1.0, 406, 3, -0.5, 454, 3, -0.5
*EQUATION
3
1609, 1, 1.0, 453, 1, -0.5, 454, 1, -0.5
*EQUATION
3
1609, 2, 1.0, 453, 2, -0.5, 454, 2, -0.5
*EQUATION
3
1609, 3, 1.0, 453, 3, -0.5, 454, 3, -0.5
*EQUATION
3
1611, 1, 1.0, 404, 1, -0.5, 409, 1, -0.5
*EQUATION
3
1611, 2, 1.0, 404, 2, -0.5, 409, 2, -0.5
*EQUATION
3
1611, 3, 1.0, 404, 3, -0.5, 409, 3, -0.5
*EQUATION
5
1612, 1, 1.0, 404, 1, -0.25, 409, 1, -0.25, 410, 1, -0.25, 406, 1, -0.25
*EQUATION
5
1612, 2, 1.0, 404, 2, -0.25, 409, 2, -0.25, 410, 2, -0.25, 406, 2, -0.25
*EQUATION
5
1612, 3, 1.0, 404, 3, -0.25, 409, 3, -0.25, 410, 3, -0.25, 406, 3, -0.25
*EQUATION
3
1613, 1, 1.0, 406, 1, -0.5, 410, 1, -0.5
*EQUATION
3
1613, 2, 1.0, 406, 2, -0.5, 410, 2, -0.5
*EQUATION
3
1613, 3, 1.0, 406, 3, -0.5, 410, 3, -0.5
*EQUATION
3
1614, 1, 1.0, 409, 1, -0.5, 410, 1, -0.5
*EQUATION
3
1614, 2, 1.0, 409, 2, -0.5, 410, 2, -0.5
*EQUATION
3
1614, 3, 1.0, 409, 3, -0.5, 410, 3, -0.5
*EQUATION
5
1617, 1, 1.0, 406, 1, -0.25, 454, 1, -0.25, 458, 1, -0.25, 410, 1, -0.25
*EQUATION
5
1617, 2, 1.0, 406, 2, -0.25, 454, 2, -0.25, 458, 2, -0.25, 410, 2, -0.25
*EQUATION
5
1617, 3, 1.0, 406, 3, -0.25, 454, 3, -0.25, 458, 3, -0.25, 410, 3, -0.25
*EQUATION
3
1620, 1, 1.0, 410, 1, -0.5, 458, 1, -0.5
*EQUATION
3
1620, 2, 1.0, 410, 2, -0.5, 458, 2, -0.5
*EQUATION
3
1620, 3, 1.0, 410, 3, -0.5, 458, 3, -0.5
*EQUATION
3
1623, 1, 1.0, 454, 1, -0.5, 458, 1, -0.5
*EQUATION
3
1623, 2, 1.0, 454, 2, -0.5, 458, 2, -0.5
*EQUATION
3
1623, 3, 1.0, 454, 3, -0.5, 458, 3, -0.5
*EQUATION
3
1625, 1, 1.0, 409, 1, -0.5, 412, 1, -0.5
*EQUATION
3
1625, 2, 1.0, 409, 2, -0.5, 412, 2, -0.5
*EQUATION
3
1625, 3, 1.0, 409, 3, -0.5, 412, 3, -0.5
*EQUATION
5
1626, 1, 1.0, 409, 1, -0.25, 412, 1, -0.25, 413, 1, -0.25, 410, 1, -0.25
*EQUATION
5
1626, 2, 1.0, 409, 2, -0.25, 412, 2, -0.25, 413, 2, -0.25, 410, 2, -0.25
*EQUATION
5
1626, 3, 1.0, 409, 3, -0.25, 412, 3, -0.25, 413, 3, -0.25, 410, 3, -0.25
*EQUATION
3
1627, 1, 1.0, 410, 1, -0.5, 413, 1, -0.5
*EQUATION
3
1627, 2, 1.0, 410, 2, -0.5, 413, 2, -0.5
*EQUATION
3
1627, 3, 1.0, 410, 3, -0.5, 413, 3, -0.5
*EQUATION
3
1628, 1, 1.0, 412, 1, -0.5, 413, 1, -0.5
*EQUATION
3
1628, 2, 1.0, 412, 2, -0.5, 413, 2, -0.5
*EQUATION
3
1628, 3, 1.0, 412, 3, -0.5, 413, 3, -0.5
*EQUATION
5
1631, 1, 1.0, 410, 1, -0.25, 458, 1, -0.25, 461, 1, -0.25, 413, 1, -0.25
*EQUATION
5
1631, 2, 1.0, 410, 2, -0.25, 458, 2, -0.25, 461, 2, -0.25, 413, 2, -0.25
*EQUATION
5
1631, 3, 1.0, 410, 3, -0.25, 458, 3, -0.25, 461, 3, -0.25, 413, 3, -0.25
*EQUATION
3
1632, 1, 1.0, 412, 1, -0.5, 460, 1, -0.5
*EQUATION
3
1632, 2, 1.0, 412, 2, -0.5, 460, 2, -0.5
*EQUATION
3
1632, 3, 1.0, 412, 3, -0.5, 460, 3, -0.5
*EQUATION
5
1633, 1, 1.0, 412, 1, -0.25, 460, 1, -0.25, 461, 1, -0.25, 413, 1, -0.25
*EQUATION
5
1633, 2, 1.0, 412, 2, -0.25, 460, 2, -0.25, 461, 2, -0.25, 413, 2, -0.25
*EQUATION
5
1633, 3, 1.0, 412, 3, -0.25, 460, 3, -0.25, 461, 3, -0.25, 413, 3, -0.25
*EQUATION
3
1634, 1, 1.0, 413, 1, -0.5, 461, 1, -0.5
*EQUATION
3
1634, 2, 1.0, 413, 2, -0.5, 461, 2, -0.5
*EQUATION
3
1634, 3, 1.0, 413, 3, -0.5, 461, 3, -0.5
*EQUATION
3
1637, 1, 1.0, 458, 1, -0.5, 461, 1, -0.5
*EQUATION
3
1637, 2, 1.0, 458, 2, -0.5, 461, 2, -0.5
*EQUATION
3
1637, 3, 1.0, 458, 3, -0.5, 461, 3, -0.5
*EQUATION
3
1638, 1, 1.0, 460, 1, -0.5, 461, 1, -0.5
*EQUATION
3
1638, 2, 1.0, 460, 2, -0.5, 461, 2, -0.5
*EQUATION
3
1638, 3, 1.0, 460, 3, -0.5, 461, 3, -0.5
*EQUATION
3
1639, 1, 1.0, 424, 1, -0.5, 425, 1, -0.5
*EQUATION
3
1639, 2, 1.0, 424, 2, -0.5, 425, 2, -0.5
*EQUATION
3
1639, 3, 1.0, 424, 3, -0.5, 425, 3, -0.5
*EQUATION
3
1640, 1, 1.0, 424, 1, -0.5, 427, 1, -0.5
*EQUATION
3
1640, 2, 1.0, 424, 2, -0.5, 427, 2, -0.5
*EQUATION
3
1640, 3, 1.0, 424, 3, -0.5, 427, 3, -0.5
*EQUATION
5
1641, 1, 1.0, 424, 1, -0.25, 427, 1, -0.25, 428, 1, -0.25, 425, 1, -0.25
*EQUATION
5
1641, 2, 1.0, 424, 2, -0.25, 427, 2, -0.25, 428, 2, -0.25, 425, 2, -0.25
*EQUATION
5
1641, 3, 1.0, 424, 3, -0.25, 427, 3, -0.25, 428, 3, -0.25, 425, 3, -0.25
*EQUATION
3
1642, 1, 1.0, 425, 1, -0.5, 428, 1, -0.5
*EQUATION
3
1642, 2, 1.0, 425, 2, -0.5, 428, 2, -0.5
*EQUATION
3
1642, 3, 1.0, 425, 3, -0.5, 428, 3, -0.5
*EQUATION
3
1643, 1, 1.0, 427, 1, -0.5, 428, 1, -0.5
*EQUATION
3
1643, 2, 1.0, 427, 2, -0.5, 428, 2, -0.5
*EQUATION
3
1643, 3, 1.0, 427, 3, -0.5, 428, 3, -0.5
*EQUATION
3
1644, 1, 1.0, 424, 1, -0.5, 472, 1, -0.5
*EQUATION
3
1644, 2, 1.0, 424, 2, -0.5, 472, 2, -0.5
*EQUATION
3
1644, 3, 1.0, 424, 3, -0.5, 472, 3, -0.5
*EQUATION
5
1645, 1, 1.0, 424, 1, -0.25, 472, 1, -0.25, 473, 1, -0.25, 425, 1, -0.25
*EQUATION
5
1645, 2, 1.0, 424, 2, -0.25, 472, 2, -0.25, 473, 2, -0.25, 425, 2, -0.25
*EQUATION
5
1645, 3, 1.0, 424, 3, -0.25, 472, 3, -0.25, 473, 3, -0.25, 425, 3, -0.25
*EQUATION
3
1646, 1, 1.0, 425, 1, -0.5, 473, 1, -0.5
*EQUATION
3
1646, 2, 1.0, 425, 2, -0.5, 473, 2, -0.5
*EQUATION
3
1646, 3, 1.0, 425, 3, -0.5, 473, 3, -0.5
*EQUATION
5
1649, 1, 1.0, 425, 1, -0.25, 473, 1, -0.25, 476, 1, -0.25, 428, 1, -0.25
*EQUATION
5
1649, 2, 1.0, 425, 2, -0.25, 473, 2, -0.25, 476, 2, -0.25, 428, 2, -0.25
*EQUATION
5
1649, 3, 1.0, 425, 3, -0.25, 473, 3, -0.25, 476, 3, -0.25, 428, 3, -0.25
*EQUATION
3
1652, 1, 1.0, 428, 1, -0.5, 476, 1, -0.5
*EQUATION
3
1652, 2, 1.0, 428, 2, -0.5, 476, 2, -0.5
*EQUATION
3
1652, 3, 1.0, 428, 3, -0.5, 476, 3, -0.5
*EQUATION
3
1653, 1, 1.0, 472, 1, -0.5, 473, 1, -0.5
*EQUATION
3
1653, 2, 1.0, 472, 2, -0.5, 473, 2, -0.5
*EQUATION
3
1653, 3, 1.0, 472, 3, -0.5, 473, 3, -0.5
*EQUATION
3
1656, 1, 1.0, 473, 1, -0.5, 476, 1, -0.5
*EQUATION
3
1656, 2, 1.0, 473, 2, -0.5, 476, 2, -0.5
*EQUATION
3
1656, 3, 1.0, 473, 3, -0.5, 476, 3, -0.5
*EQUATION
3
1658, 1, 1.0, 427, 1, -0.5, 430, 1, -0.5
*EQUATION
3
1658, 2, 1.0, 427, 2, -0.5, 430, 2, -0.5
*EQUATION
3
1658, 3, 1.0, 427, 3, -0.5, 430, 3, -0.5
*EQUATION
5
1659, 1, 1.0, 427, 1, -0.25, 430, 1, -0.25, 431, 1, -0.25, 428, 1, -0.25
*EQUATION
5
1659, 2, 1.0, 427, 2, -0.25, 430, 2, -0.25, 431, 2, -0.25, 428, 2, -0.25
*EQUATION
5
1659, 3, 1.0, 427, 3, -0.25, 430, 3, -0.25, 431, 3, -0.25, 428, 3, -0.25
*EQUATION
3
1660, 1, 1.0, 428, 1, -0.5, 431, 1, -0.5
*EQUATION
3
1660, 2, 1.0, 428, 2, -0.5, 431, 2, -0.5
*EQUATION
3
1660, 3, 1.0, 428, 3, -0.5, 431, 3, -0.5
*EQUATION
3
1661, 1, 1.0, 430, 1, -0.5, 431, 1, -0.5
*EQUATION
3
1661, 2, 1.0, 430, 2, -0.5, 431, 2, -0.5
*EQUATION
3
1661, 3, 1.0, 430, 3, -0.5, 431, 3, -0.5
*EQUATION
5
1664, 1, 1.0, 428, 1, -0.25, 476, 1, -0.25, 479, 1, -0.25, 431, 1, -0.25
*EQUATION
5
1664, 2, 1.0, 428, 2, -0.25, 476, 2, -0.25, 479, 2, -0.25, 431, 2, -0.25
*EQUATION
5
1664, 3, 1.0, 428, 3, -0.25, 476, 3, -0.25, 479, 3, -0.25, 431, 3, -0.25
*EQUATION
3
1667, 1, 1.0, 431, 1, -0.5, 479, 1, -0.5
*EQUATION
3
1667, 2, 1.0, 431, 2, -0.5, 479, 2, -0.5
*EQUATION
3
1667, 3, 1.0, 431, 3, -0.5, 479, 3, -0.5
*EQUATION
3
1670, 1, 1.0, 476, 1, -0.5, 479, 1, -0.5
*EQUATION
3
1670, 2, 1.0, 476, 2, -0.5, 479, 2, -0.5
*EQUATION
3
1670, 3, 1.0, 476, 3, -0.5, 479, 3, -0.5
*EQUATION
3
1686, 1, 1.0, 453, 1, -0.5, 455, 1, -0.5
*EQUATION
3
1686, 2, 1.0, 453, 2, -0.5, 455, 2, -0.5
*EQUATION
3
1686, 3, 1.0, 453, 3, -0.5, 455, 3, -0.5
*EQUATION
5
1687, 1, 1.0, 453, 1, -0.25, 454, 1, -0.25, 456, 1, -0.25, 455, 1, -0.25
*EQUATION
5
1687, 2, 1.0, 453, 2, -0.25, 454, 2, -0.25, 456, 2, -0.25, 455, 2, -0.25
*EQUATION
5
1687, 3, 1.0, 453, 3, -0.25, 454, 3, -0.25, 456, 3, -0.25, 455, 3, -0.25
*EQUATION
3
1688, 1, 1.0, 455, 1, -0.5, 456, 1, -0.5
*EQUATION
3
1688, 2, 1.0, 455, 2, -0.5, 456, 2, -0.5
*EQUATION
3
1688, 3, 1.0, 455, 3, -0.5, 456, 3, -0.5
*EQUATION
3
1689, 1, 1.0, 454, 1, -0.5, 456, 1, -0.5
*EQUATION
3
1689, 2, 1.0, 454, 2, -0.5, 456, 2, -0.5
*EQUATION
3
1689, 3, 1.0, 454, 3, -0.5, 456, 3, -0.5
*EQUATION
5
1710, 1, 1.0, 454, 1, -0.25, 458, 1, -0.25, 459, 1, -0.25, 456, 1, -0.25
*EQUATION
5
1710, 2, 1.0, 454, 2, -0.25, 458, 2, -0.25, 459, 2, -0.25, 456, 2, -0.25
*EQUATION
5
1710, 3, 1.0, 454, 3, -0.25, 458, 3, -0.25, 459, 3, -0.25, 456, 3, -0.25
*EQUATION
3
1711, 1, 1.0, 456, 1, -0.5, 459, 1, -0.5
*EQUATION
3
1711, 2, 1.0, 456, 2, -0.5, 459, 2, -0.5
*EQUATION
3
1711, 3, 1.0, 456, 3, -0.5, 459, 3, -0.5
*EQUATION
3
1712, 1, 1.0, 458, 1, -0.5, 459, 1, -0.5
*EQUATION
3
1712, 2, 1.0, 458, 2, -0.5, 459, 2, -0.5
*EQUATION
3
1712, 3, 1.0, 458, 3, -0.5, 459, 3, -0.5
*EQUATION
3
1723, 1, 1.0, 460, 1, -0.5, 508, 1, -0.5
*EQUATION
3
1723, 2, 1.0, 460, 2, -0.5, 508, 2, -0.5
*EQUATION
3
1723, 3, 1.0, 460, 3, -0.5, 508, 3, -0.5
*EQUATION
5
1724, 1, 1.0, 460, 1, -0.25, 508, 1, -0.25, 509, 1, -0.25, 461, 1, -0.25
*EQUATION
5
1724, 2, 1.0, 460, 2, -0.25, 508, 2, -0.25, 509, 2, -0.25, 461, 2, -0.25
*EQUATION
5
1724, 3, 1.0, 460, 3, -0.25, 508, 3, -0.25, 509, 3, -0.25, 461, 3, -0.25
*EQUATION
3
1725, 1, 1.0, 461, 1, -0.5, 509, 1, -0.5
*EQUATION
3
1725, 2, 1.0, 461, 2, -0.5, 509, 2, -0.5
*EQUATION
3
1725, 3, 1.0, 461, 3, -0.5, 509, 3, -0.5
*EQUATION
3
1729, 1, 1.0, 508, 1, -0.5, 509, 1, -0.5
*EQUATION
3
1729, 2, 1.0, 508, 2, -0.5, 509, 2, -0.5
*EQUATION
3
1729, 3, 1.0, 508, 3, -0.5, 509, 3, -0.5
*EQUATION
5
1730, 1, 1.0, 458, 1, -0.25, 461, 1, -0.25, 462, 1, -0.25, 459, 1, -0.25
*EQUATION
5
1730, 2, 1.0, 458, 2, -0.25, 461, 2, -0.25, 462, 2, -0.25, 459, 2, -0.25
*EQUATION
5
1730, 3, 1.0, 458, 3, -0.25, 461, 3, -0.25, 462, 3, -0.25, 459, 3, -0.25
*EQUATION
3
1731, 1, 1.0, 459, 1, -0.5, 462, 1, -0.5
*EQUATION
3
1731, 2, 1.0, 459, 2, -0.5, 462, 2, -0.5
*EQUATION
3
1731, 3, 1.0, 459, 3, -0.5, 462, 3, -0.5
*EQUATION
3
1732, 1, 1.0, 461, 1, -0.5, 462, 1, -0.5
*EQUATION
3
1732, 2, 1.0, 461, 2, -0.5, 462, 2, -0.5
*EQUATION
3
1732, 3, 1.0, 461, 3, -0.5, 462, 3, -0.5
*EQUATION
3
1740, 1, 1.0, 461, 1, -0.5, 463, 1, -0.5
*EQUATION
3
1740, 2, 1.0, 461, 2, -0.5, 463, 2, -0.5
*EQUATION
3
1740, 3, 1.0, 461, 3, -0.5, 463, 3, -0.5
*EQUATION
5
1741, 1, 1.0, 461, 1, -0.25, 463, 1, -0.25, 464, 1, -0.25, 462, 1, -0.25
*EQUATION
5
1741, 2, 1.0, 461, 2, -0.25, 463, 2, -0.25, 464, 2, -0.25, 462, 2, -0.25
*EQUATION
5
1741, 3, 1.0, 461, 3, -0.25, 463, 3, -0.25, 464, 3, -0.25, 462, 3, -0.25
*EQUATION
3
1742, 1, 1.0, 462, 1, -0.5, 464, 1, -0.5
*EQUATION
3
1742, 2, 1.0, 462, 2, -0.5, 464, 2, -0.5
*EQUATION
3
1742, 3, 1.0, 462, 3, -0.5, 464, 3, -0.5
*EQUATION
3
1743, 1, 1.0, 463, 1, -0.5, 464, 1, -0.5
*EQUATION
3
1743, 2, 1.0, 463, 2, -0.5, 464, 2, -0.5
*EQUATION
3
1743, 3, 1.0, 463, 3, -0.5, 464, 3, -0.5
*EQUATION
5
1744, 1, 1.0, 461, 1, -0.25, 509, 1, -0.25, 511, 1, -0.25, 463, 1, -0.25
*EQUATION
5
1744, 2, 1.0, 461, 2, -0.25, 509, 2, -0.25, 511, 2, -0.25, 463, 2, -0.25
*EQUATION
5
1744, 3, 1.0, 461, 3, -0.25, 509, 3, -0.25, 511, 3, -0.25, 463, 3, -0.25
*EQUATION
3
1747, 1, 1.0, 463, 1, -0.5, 511, 1, -0.5
*EQUATION
3
1747, 2, 1.0, 463, 2, -0.5, 511, 2, -0.5
*EQUATION
3
1747, 3, 1.0, 463, 3, -0.5, 511, 3, -0.5
*EQUATION
5
1748, 1, 1.0, 463, 1, -0.25, 511, 1, -0.25, 512, 1, -0.25, 464, 1, -0.25
*EQUATION
5
1748, 2, 1.0, 463, 2, -0.25, 511, 2, -0.25, 512, 2, -0.25, 464, 2, -0.25
*EQUATION
5
1748, 3, 1.0, 463, 3, -0.25, 511, 3, -0.25, 512, 3, -0.25, 464, 3, -0.25
*EQUATION
3
1749, 1, 1.0, 464, 1, -0.5, 512, 1, -0.5
*EQUATION
3
1749, 2, 1.0, 464, 2, -0.5, 512, 2, -0.5
*EQUATION
3
1749, 3, 1.0, 464, 3, -0.5, 512, 3, -0.5
*EQUATION
3
1750, 1, 1.0, 509, 1, -0.5, 511, 1, -0.5
*EQUATION
3
1750, 2, 1.0, 509, 2, -0.5, 511, 2, -0.5
*EQUATION
3
1750, 3, 1.0, 509, 3, -0.5, 511, 3, -0.5
*EQUATION
3
1753, 1, 1.0, 511, 1, -0.5, 512, 1, -0.5
*EQUATION
3
1753, 2, 1.0, 511, 2, -0.5, 512, 2, -0.5
*EQUATION
3
1753, 3, 1.0, 511, 3, -0.5, 512, 3, -0.5
*EQUATION
3
1754, 1, 1.0, 467, 1, -0.5, 468, 1, -0.5
*EQUATION
3
1754, 2, 1.0, 467, 2, -0.5, 468, 2, -0.5
*EQUATION
3
1754, 3, 1.0, 467, 3, -0.5, 468, 3, -0.5
*EQUATION
3
1755, 1, 1.0, 467, 1, -0.5, 470, 1, -0.5
*EQUATION
3
1755, 2, 1.0, 467, 2, -0.5, 470, 2, -0.5
*EQUATION
3
1755, 3, 1.0, 467, 3, -0.5, 470, 3, -0.5
*EQUATION
5
1756, 1, 1.0, 467, 1, -0.25, 470, 1, -0.25, 471, 1, -0.25, 468, 1, -0.25
*EQUATION
5
1756, 2, 1.0, 467, 2, -0.25, 470, 2, -0.25, 471, 2, -0.25, 468, 2, -0.25
*EQUATION
5
1756, 3, 1.0, 467, 3, -0.25, 470, 3, -0.25, 471, 3, -0.25, 468, 3, -0.25
*EQUATION
3
1757, 1, 1.0, 468, 1, -0.5, 471, 1, -0.5
*EQUATION
3
1757, 2, 1.0, 468, 2, -0.5, 471, 2, -0.5
*EQUATION
3
1757, 3, 1.0, 468, 3, -0.5, 471, 3, -0.5
*EQUATION
3
1758, 1, 1.0, 470, 1, -0.5, 471, 1, -0.5
*EQUATION
3
1758, 2, 1.0, 470, 2, -0.5, 471, 2, -0.5
*EQUATION
3
1758, 3, 1.0, 470, 3, -0.5, 471, 3, -0.5
*EQUATION
3
1759, 1, 1.0, 467, 1, -0.5, 515, 1, -0.5
*EQUATION
3
1759, 2, 1.0, 467, 2, -0.5, 515, 2, -0.5
*EQUATION
3
1759, 3, 1.0, 467, 3, -0.5, 515, 3, -0.5
*EQUATION
5
1760, 1, 1.0, 467, 1, -0.25, 515, 1, -0.25, 516, 1, -0.25, 468, 1, -0.25
*EQUATION
5
1760, 2, 1.0, 467, 2, -0.25, 515, 2, -0.25, 516, 2, -0.25, 468, 2, -0.25
*EQUATION
5
1760, 3, 1.0, 467, 3, -0.25, 515, 3, -0.25, 516, 3, -0.25, 468, 3, -0.25
*EQUATION
3
1761, 1, 1.0, 468, 1, -0.5, 516, 1, -0.5
*EQUATION
3
1761, 2, 1.0, 468, 2, -0.5, 516, 2, -0.5
*EQUATION
3
1761, 3, 1.0, 468, 3, -0.5, 516, 3, -0.5
*EQUATION
5
1762, 1, 1.0, 467, 1, -0.25, 515, 1, -0.25, 518, 1, -0.25, 470, 1, -0.25
*EQUATION
5
1762, 2, 1.0, 467, 2, -0.25, 515, 2, -0.25, 518, 2, -0.25, 470, 2, -0.25
*EQUATION
5
1762, 3, 1.0, 467, 3, -0.25, 515, 3, -0.25, 518, 3, -0.25, 470, 3, -0.25
*EQUATION
3
1765, 1, 1.0, 470, 1, -0.5, 518, 1, -0.5
*EQUATION
3
1765, 2, 1.0, 470, 2, -0.5, 518, 2, -0.5
*EQUATION
3
1765, 3, 1.0, 470, 3, -0.5, 518, 3, -0.5
*EQUATION
3
1768, 1, 1.0, 515, 1, -0.5, 516, 1, -0.5
*EQUATION
3
1768, 2, 1.0, 515, 2, -0.5, 516, 2, -0.5
*EQUATION
3
1768, 3, 1.0, 515, 3, -0.5, 516, 3, -0.5
*EQUATION
3
1769, 1, 1.0, 515, 1, -0.5, 518, 1, -0.5
*EQUATION
3
1769, 2, 1.0, 515, 2, -0.5, 518, 2, -0.5
*EQUATION
3
1769, 3, 1.0, 515, 3, -0.5, 518, 3, -0.5
*EQUATION
3
1773, 1, 1.0, 469, 1, -0.5, 470, 1, -0.5
*EQUATION
3
1773, 2, 1.0, 469, 2, -0.5, 470, 2, -0.5
*EQUATION
3
1773, 3, 1.0, 469, 3, -0.5, 470, 3, -0.5
*EQUATION
3
1774, 1, 1.0, 469, 1, -0.5, 472, 1, -0.5
*EQUATION
3
1774, 2, 1.0, 469, 2, -0.5, 472, 2, -0.5
*EQUATION
3
1774, 3, 1.0, 469, 3, -0.5, 472, 3, -0.5
*EQUATION
5
1775, 1, 1.0, 469, 1, -0.25, 472, 1, -0.25, 473, 1, -0.25, 470, 1, -0.25
*EQUATION
5
1775, 2, 1.0, 469, 2, -0.25, 472, 2, -0.25, 473, 2, -0.25, 470, 2, -0.25
*EQUATION
5
1775, 3, 1.0, 469, 3, -0.25, 472, 3, -0.25, 473, 3, -0.25, 470, 3, -0.25
*EQUATION
3
1776, 1, 1.0, 470, 1, -0.5, 473, 1, -0.5
*EQUATION
3
1776, 2, 1.0, 470, 2, -0.5, 473, 2, -0.5
*EQUATION
3
1776, 3, 1.0, 470, 3, -0.5, 473, 3, -0.5
*EQUATION
3
1777, 1, 1.0, 469, 1, -0.5, 517, 1, -0.5
*EQUATION
3
1777, 2, 1.0, 469, 2, -0.5, 517, 2, -0.5
*EQUATION
3
1777, 3, 1.0, 469, 3, -0.5, 517, 3, -0.5
*EQUATION
5
1778, 1, 1.0, 469, 1, -0.25, 517, 1, -0.25, 518, 1, -0.25, 470, 1, -0.25
*EQUATION
5
1778, 2, 1.0, 469, 2, -0.25, 517, 2, -0.25, 518, 2, -0.25, 470, 2, -0.25
*EQUATION
5
1778, 3, 1.0, 469, 3, -0.25, 517, 3, -0.25, 518, 3, -0.25, 470, 3, -0.25
*EQUATION
3
1785, 1, 1.0, 517, 1, -0.5, 518, 1, -0.5
*EQUATION
3
1785, 2, 1.0, 517, 2, -0.5, 518, 2, -0.5
*EQUATION
3
1785, 3, 1.0, 517, 3, -0.5, 518, 3, -0.5
*EQUATION
5
1790, 1, 1.0, 470, 1, -0.25, 473, 1, -0.25, 474, 1, -0.25, 471, 1, -0.25
*EQUATION
5
1790, 2, 1.0, 470, 2, -0.25, 473, 2, -0.25, 474, 2, -0.25, 471, 2, -0.25
*EQUATION
5
1790, 3, 1.0, 470, 3, -0.25, 473, 3, -0.25, 474, 3, -0.25, 471, 3, -0.25
*EQUATION
3
1791, 1, 1.0, 471, 1, -0.5, 474, 1, -0.5
*EQUATION
3
1791, 2, 1.0, 471, 2, -0.5, 474, 2, -0.5
*EQUATION
3
1791, 3, 1.0, 471, 3, -0.5, 474, 3, -0.5
*EQUATION
3
1792, 1, 1.0, 473, 1, -0.5, 474, 1, -0.5
*EQUATION
3
1792, 2, 1.0, 473, 2, -0.5, 474, 2, -0.5
*EQUATION
3
1792, 3, 1.0, 473, 3, -0.5, 474, 3, -0.5
*EQUATION
5
1810, 1, 1.0, 473, 1, -0.25, 476, 1, -0.25, 477, 1, -0.25, 474, 1, -0.25
*EQUATION
5
1810, 2, 1.0, 473, 2, -0.25, 476, 2, -0.25, 477, 2, -0.25, 474, 2, -0.25
*EQUATION
5
1810, 3, 1.0, 473, 3, -0.25, 476, 3, -0.25, 477, 3, -0.25, 474, 3, -0.25
*EQUATION
3
1811, 1, 1.0, 474, 1, -0.5, 477, 1, -0.5
*EQUATION
3
1811, 2, 1.0, 474, 2, -0.5, 477, 2, -0.5
*EQUATION
3
1811, 3, 1.0, 474, 3, -0.5, 477, 3, -0.5
*EQUATION
3
1812, 1, 1.0, 476, 1, -0.5, 477, 1, -0.5
*EQUATION
3
1812, 2, 1.0, 476, 2, -0.5, 477, 2, -0.5
*EQUATION
3
1812, 3, 1.0, 476, 3, -0.5, 477, 3, -0.5
*EQUATION
5
1830, 1, 1.0, 476, 1, -0.25, 479, 1, -0.25, 480, 1, -0.25, 477, 1, -0.25
*EQUATION
5
1830, 2, 1.0, 476, 2, -0.25, 479, 2, -0.25, 480, 2, -0.25, 477, 2, -0.25
*EQUATION
5
1830, 3, 1.0, 476, 3, -0.25, 479, 3, -0.25, 480, 3, -0.25, 477, 3, -0.25
*EQUATION
3
1831, 1, 1.0, 477, 1, -0.5, 480, 1, -0.5
*EQUATION
3
1831, 2, 1.0, 477, 2, -0.5, 480, 2, -0.5
*EQUATION
3
1831, 3, 1.0, 477, 3, -0.5, 480, 3, -0.5
*EQUATION
3
1832, 1, 1.0, 479, 1, -0.5, 480, 1, -0.5
*EQUATION
3
1832, 2, 1.0, 479, 2, -0.5, 480, 2, -0.5
*EQUATION
3
1832, 3, 1.0, 479, 3, -0.5, 480, 3, -0.5
*EQUATION
3
1884, 1, 1.0, 508, 1, -0.5, 556, 1, -0.5
*EQUATION
3
1884, 2, 1.0, 508, 2, -0.5, 556, 2, -0.5
*EQUATION
3
1884, 3, 1.0, 508, 3, -0.5, 556, 3, -0.5
*EQUATION
5
1885, 1, 1.0, 508, 1, -0.25, 556, 1, -0.25, 557, 1, -0.25, 509, 1, -0.25
*EQUATION
5
1885, 2, 1.0, 508, 2, -0.25, 556, 2, -0.25, 557, 2, -0.25, 509, 2, -0.25
*EQUATION
5
1885, 3, 1.0, 508, 3, -0.25, 556, 3, -0.25, 557, 3, -0.25, 509, 3, -0.25
*EQUATION
3
1886, 1, 1.0, 509, 1, -0.5, 557, 1, -0.5
*EQUATION
3
1886, 2, 1.0, 509, 2, -0.5, 557, 2, -0.5
*EQUATION
3
1886, 3, 1.0, 509, 3, -0.5, 557, 3, -0.5
*EQUATION
3
1890, 1, 1.0, 556, 1, -0.5, 557, 1, -0.5
*EQUATION
3
1890, 2, 1.0, 556, 2, -0.5, 557, 2, -0.5
*EQUATION
3
1890, 3, 1.0, 556, 3, -0.5, 557, 3, -0.5
*EQUATION
5
1898, 1, 1.0, 509, 1, -0.25, 557, 1, -0.25, 559, 1, -0.25, 511, 1, -0.25
*EQUATION
5
1898, 2, 1.0, 509, 2, -0.25, 557, 2, -0.25, 559, 2, -0.25, 511, 2, -0.25
*EQUATION
5
1898, 3, 1.0, 509, 3, -0.25, 557, 3, -0.25, 559, 3, -0.25, 511, 3, -0.25
*EQUATION
3
1901, 1, 1.0, 511, 1, -0.5, 559, 1, -0.5
*EQUATION
3
1901, 2, 1.0, 511, 2, -0.5, 559, 2, -0.5
*EQUATION
3
1901, 3, 1.0, 511, 3, -0.5, 559, 3, -0.5
*EQUATION
5
1902, 1, 1.0, 511, 1, -0.25, 559, 1, -0.25, 560, 1, -0.25, 512, 1, -0.25
*EQUATION
5
1902, 2, 1.0, 511, 2, -0.25, 559, 2, -0.25, 560, 2, -0.25, 512, 2, -0.25
*EQUATION
5
1902, 3, 1.0, 511, 3, -0.25, 559, 3, -0.25, 560, 3, -0.25, 512, 3, -0.25
*EQUATION
3
1903, 1, 1.0, 512, 1, -0.5, 560, 1, -0.5
*EQUATION
3
1903, 2, 1.0, 512, 2, -0.5, 560, 2, -0.5
*EQUATION
3
1903, 3, 1.0, 512, 3, -0.5, 560, 3, -0.5
*EQUATION
3
1904, 1, 1.0, 557, 1, -0.5, 559, 1, -0.5
*EQUATION
3
1904, 2, 1.0, 557, 2, -0.5, 559, 2, -0.5
*EQUATION
3
1904, 3, 1.0, 557, 3, -0.5, 559, 3, -0.5
*EQUATION
3
1907, 1, 1.0, 559, 1, -0.5, 560, 1, -0.5
*EQUATION
3
1907, 2, 1.0, 559, 2, -0.5, 560, 2, -0.5
*EQUATION
3
1907, 3, 1.0, 559, 3, -0.5, 560, 3, -0.5
*EQUATION
3
1908, 1, 1.0, 515, 1, -0.5, 563, 1, -0.5
*EQUATION
3
1908, 2, 1.0, 515, 2, -0.5, 563, 2, -0.5
*EQUATION
3
1908, 3, 1.0, 515, 3, -0.5, 563, 3, -0.5
*EQUATION
5
1909, 1, 1.0, 515, 1, -0.25, 563, 1, -0.25, 564, 1, -0.25, 516, 1, -0.25
*EQUATION
5
1909, 2, 1.0, 515, 2, -0.25, 563, 2, -0.25, 564, 2, -0.25, 516, 2, -0.25
*EQUATION
5
1909, 3, 1.0, 515, 3, -0.25, 563, 3, -0.25, 564, 3, -0.25, 516, 3, -0.25
*EQUATION
3
1910, 1, 1.0, 516, 1, -0.5, 564, 1, -0.5
*EQUATION
3
1910, 2, 1.0, 516, 2, -0.5, 564, 2, -0.5
*EQUATION
3
1910, 3, 1.0, 516, 3, -0.5, 564, 3, -0.5
*EQUATION
5
1911, 1, 1.0, 515, 1, -0.25, 563, 1, -0.25, 566, 1, -0.25, 518, 1, -0.25
*EQUATION
5
1911, 2, 1.0, 515, 2, -0.25, 563, 2, -0.25, 566, 2, -0.25, 518, 2, -0.25
*EQUATION
5
1911, 3, 1.0, 515, 3, -0.25, 563, 3, -0.25, 566, 3, -0.25, 518, 3, -0.25
*EQUATION
3
1914, 1, 1.0, 518, 1, -0.5, 566, 1, -0.5
*EQUATION
3
1914, 2, 1.0, 518, 2, -0.5, 566, 2, -0.5
*EQUATION
3
1914, 3, 1.0, 518, 3, -0.5, 566, 3, -0.5
*EQUATION
3
1917, 1, 1.0, 563, 1, -0.5, 564, 1, -0.5
*EQUATION
3
1917, 2, 1.0, 563, 2, -0.5, 564, 2, -0.5
*EQUATION
3
1917, 3, 1.0, 563, 3, -0.5, 564, 3, -0.5
*EQUATION
3
1918, 1, 1.0, 563, 1, -0.5, 566, 1, -0.5
*EQUATION
3
1918, 2, 1.0, 563, 2, -0.5, 566, 2, -0.5
*EQUATION
3
1918, 3, 1.0, 563, 3, -0.5, 566, 3, -0.5
*EQUATION
3
1922, 1, 1.0, 517, 1, -0.5, 565, 1, -0.5
*EQUATION
3
1922, 2, 1.0, 517, 2, -0.5, 565, 2, -0.5
*EQUATION
3
1922, 3, 1.0, 517, 3, -0.5, 565, 3, -0.5
*EQUATION
5
1923, 1, 1.0, 517, 1, -0.25, 565, 1, -0.25, 566, 1, -0.25, 518, 1, -0.25
*EQUATION
5
1923, 2, 1.0, 517, 2, -0.25, 565, 2, -0.25, 566, 2, -0.25, 518, 2, -0.25
*EQUATION
5
1923, 3, 1.0, 517, 3, -0.25, 565, 3, -0.25, 566, 3, -0.25, 518, 3, -0.25
*EQUATION
3
1930, 1, 1.0, 565, 1, -0.5, 566, 1, -0.5
*EQUATION
3
1930, 2, 1.0, 565, 2, -0.5, 566, 2, -0.5
*EQUATION
3
1930, 3, 1.0, 565, 3, -0.5, 566, 3, -0.5
*EQUATION
3
2034, 1, 1.0, 539, 1, -0.5, 556, 1, -0.5
*EQUATION
3
2034, 2, 1.0, 539, 2, -0.5, 556, 2, -0.5
*EQUATION
3
2034, 3, 1.0, 539, 3, -0.5, 556, 3, -0.5
*EQUATION
5
2035, 1, 1.0, 556, 1, -0.25, 539, 1, -0.25, 559, 1, -0.25, 557, 1, -0.25
*EQUATION
5
2035, 2, 1.0, 556, 2, -0.25, 539, 2, -0.25, 559, 2, -0.25, 557, 2, -0.25
*EQUATION
5
2035, 3, 1.0, 556, 3, -0.25, 539, 3, -0.25, 559, 3, -0.25, 557, 3, -0.25
*EQUATION
3
2036, 1, 1.0, 539, 1, -0.5, 559, 1, -0.5
*EQUATION
3
2036, 2, 1.0, 539, 2, -0.5, 559, 2, -0.5
*EQUATION
3
2036, 3, 1.0, 539, 3, -0.5, 559, 3, -0.5
*EQUATION
3
2040, 1, 1.0, 539, 1, -0.5, 587, 1, -0.5
*EQUATION
3
2040, 2, 1.0, 539, 2, -0.5, 587, 2, -0.5
*EQUATION
3
2040, 3, 1.0, 539, 3, -0.5, 587, 3, -0.5
*EQUATION
5
2041, 1, 1.0, 539, 1, -0.25, 587, 1, -0.25, 607, 1, -0.25, 559, 1, -0.25
*EQUATION
5
2041, 2, 1.0, 539, 2, -0.25, 587, 2, -0.25, 607, 2, -0.25, 559, 2, -0.25
*EQUATION
5
2041, 3, 1.0, 539, 3, -0.25, 587, 3, -0.25, 607, 3, -0.25, 559, 3, -0.25
*EQUATION
3
2042, 1, 1.0, 559, 1, -0.5, 607, 1, -0.5
*EQUATION
3
2042, 2, 1.0, 559, 2, -0.5, 607, 2, -0.5
*EQUATION
3
2042, 3, 1.0, 559, 3, -0.5, 607, 3, -0.5
*EQUATION
3
2046, 1, 1.0, 587, 1, -0.5, 607, 1, -0.5
*EQUATION
3
2046, 2, 1.0, 587, 2, -0.5, 607, 2, -0.5
*EQUATION
3
2046, 3, 1.0, 587, 3, -0.5, 607, 3, -0.5
*EQUATION
5
2049, 1, 1.0, 559, 1, -0.25, 607, 1, -0.25, 608, 1, -0.25, 560, 1, -0.25
*EQUATION
5
2049, 2, 1.0, 559, 2, -0.25, 607, 2, -0.25, 608, 2, -0.25, 560, 2, -0.25
*EQUATION
5
2049, 3, 1.0, 559, 3, -0.25, 607, 3, -0.25, 608, 3, -0.25, 560, 3, -0.25
*EQUATION
3
2050, 1, 1.0, 560, 1, -0.5, 608, 1, -0.5
*EQUATION
3
2050, 2, 1.0, 560, 2, -0.5, 608, 2, -0.5
*EQUATION
3
2050, 3, 1.0, 560, 3, -0.5, 608, 3, -0.5
*EQUATION
3
2053, 1, 1.0, 607, 1, -0.5, 608, 1, -0.5
*EQUATION
3
2053, 2, 1.0, 607, 2, -0.5, 608, 2, -0.5
*EQUATION
3
2053, 3, 1.0, 607, 3, -0.5, 608, 3, -0.5
*EQUATION
3
2054, 1, 1.0, 546, 1, -0.5, 563, 1, -0.5
*EQUATION
3
2054, 2, 1.0, 546, 2, -0.5, 563, 2, -0.5
*EQUATION
3
2054, 3, 1.0, 546, 3, -0.5, 563, 3, -0.5
*EQUATION
3
2055, 1, 1.0, 546, 1, -0.5, 565, 1, -0.5
*EQUATION
3
2055, 2, 1.0, 546, 2, -0.5, 565, 2, -0.5
*EQUATION
3
2055, 3, 1.0, 546, 3, -0.5, 565, 3, -0.5
*EQUATION
5
2056, 1, 1.0, 546, 1, -0.25, 565, 1, -0.25, 566, 1, -0.25, 563, 1, -0.25
*EQUATION
5
2056, 2, 1.0, 546, 2, -0.25, 565, 2, -0.25, 566, 2, -0.25, 563, 2, -0.25
*EQUATION
5
2056, 3, 1.0, 546, 3, -0.25, 565, 3, -0.25, 566, 3, -0.25, 563, 3, -0.25
*EQUATION
3
2057, 1, 1.0, 546, 1, -0.5, 594, 1, -0.5
*EQUATION
3
2057, 2, 1.0, 546, 2, -0.5, 594, 2, -0.5
*EQUATION
3
2057, 3, 1.0, 546, 3, -0.5, 594, 3, -0.5
*EQUATION
5
2058, 1, 1.0, 546, 1, -0.25, 594, 1, -0.25, 611, 1, -0.25, 563, 1, -0.25
*EQUATION
5
2058, 2, 1.0, 546, 2, -0.25, 594, 2, -0.25, 611, 2, -0.25, 563, 2, -0.25
*EQUATION
5
2058, 3, 1.0, 546, 3, -0.25, 594, 3, -0.25, 611, 3, -0.25, 563, 3, -0.25
*EQUATION
3
2059, 1, 1.0, 563, 1, -0.5, 611, 1, -0.5
*EQUATION
3
2059, 2, 1.0, 563, 2, -0.5, 611, 2, -0.5
*EQUATION
3
2059, 3, 1.0, 563, 3, -0.5, 611, 3, -0.5
*EQUATION
3
2066, 1, 1.0, 594, 1, -0.5, 611, 1, -0.5
*EQUATION
3
2066, 2, 1.0, 594, 2, -0.5, 611, 2, -0.5
*EQUATION
3
2066, 3, 1.0, 594, 3, -0.5, 611, 3, -0.5
*EQUATION
5
2071, 1, 1.0, 563, 1, -0.25, 611, 1, -0.25, 612, 1, -0.25, 564, 1, -0.25
*EQUATION
5
2071, 2, 1.0, 563, 2, -0.25, 611, 2, -0.25, 612, 2, -0.25, 564, 2, -0.25
*EQUATION
5
2071, 3, 1.0, 563, 3, -0.25, 611, 3, -0.25, 612, 3, -0.25, 564, 3, -0.25
*EQUATION
3
2072, 1, 1.0, 564, 1, -0.5, 612, 1, -0.5
*EQUATION
3
2072, 2, 1.0, 564, 2, -0.5, 612, 2, -0.5
*EQUATION
3
2072, 3, 1.0, 564, 3, -0.5, 612, 3, -0.5
*EQUATION
3
2077, 1, 1.0, 611, 1, -0.5, 612, 1, -0.5
*EQUATION
3
2077, 2, 1.0, 611, 2, -0.5, 612, 2, -0.5
*EQUATION
3
2077, 3, 1.0, 611, 3, -0.5, 612, 3, -0.5
*EQUATION
3
2147, 1, 1.0, 645, 1, -0.5, 647, 1, -0.5
*EQUATION
3
2147, 2, 1.0, 645, 2, -0.5, 647, 2, -0.5
*EQUATION
3
2147, 3, 1.0, 645, 3, -0.5, 647, 3, -0.5
*EQUATION
5
2148, 1, 1.0, 645, 1, -0.25, 646, 1, -0.25, 648, 1, -0.25, 647, 1, -0.25
*EQUATION
5
2148, 2, 1.0, 645, 2, -0.25, 646, 2, -0.25, 648, 2, -0.25, 647, 2, -0.25
*EQUATION
5
2148, 3, 1.0, 645, 3, -0.25, 646, 3, -0.25, 648, 3, -0.25, 647, 3, -0.25
*EQUATION
3
2149, 1, 1.0, 647, 1, -0.5, 648, 1, -0.5
*EQUATION
3
2149, 2, 1.0, 647, 2, -0.5, 648, 2, -0.5
*EQUATION
3
2149, 3, 1.0, 647, 3, -0.5, 648, 3, -0.5
*EQUATION
3
2150, 1, 1.0, 646, 1, -0.5, 648, 1, -0.5
*EQUATION
3
2150, 2, 1.0, 646, 2, -0.5, 648, 2, -0.5
*EQUATION
3
2150, 3, 1.0, 646, 3, -0.5, 648, 3, -0.5
*EQUATION
5
2161, 1, 1.0, 646, 1, -0.25, 650, 1, -0.25, 651, 1, -0.25, 648, 1, -0.25
*EQUATION
5
2161, 2, 1.0, 646, 2, -0.25, 650, 2, -0.25, 651, 2, -0.25, 648, 2, -0.25
*EQUATION
5
2161, 3, 1.0, 646, 3, -0.25, 650, 3, -0.25, 651, 3, -0.25, 648, 3, -0.25
*EQUATION
3
2162, 1, 1.0, 648, 1, -0.5, 651, 1, -0.5
*EQUATION
3
2162, 2, 1.0, 648, 2, -0.5, 651, 2, -0.5
*EQUATION
3
2162, 3, 1.0, 648, 3, -0.5, 651, 3, -0.5
*EQUATION
3
2163, 1, 1.0, 650, 1, -0.5, 651, 1, -0.5
*EQUATION
3
2163, 2, 1.0, 650, 2, -0.5, 651, 2, -0.5
*EQUATION
3
2163, 3, 1.0, 650, 3, -0.5, 651, 3, -0.5
*EQUATION
3
2179, 1, 1.0, 587, 1, -0.5, 635, 1, -0.5
*EQUATION
3
2179, 2, 1.0, 587, 2, -0.5, 635, 2, -0.5
*EQUATION
3
2179, 3, 1.0, 587, 3, -0.5, 635, 3, -0.5
*EQUATION
5
2180, 1, 1.0, 587, 1, -0.25, 635, 1, -0.25, 655, 1, -0.25, 607, 1, -0.25
*EQUATION
5
2180, 2, 1.0, 587, 2, -0.25, 635, 2, -0.25, 655, 2, -0.25, 607, 2, -0.25
*EQUATION
5
2180, 3, 1.0, 587, 3, -0.25, 635, 3, -0.25, 655, 3, -0.25, 607, 3, -0.25
*EQUATION
3
2181, 1, 1.0, 607, 1, -0.5, 655, 1, -0.5
*EQUATION
3
2181, 2, 1.0, 607, 2, -0.5, 655, 2, -0.5
*EQUATION
3
2181, 3, 1.0, 607, 3, -0.5, 655, 3, -0.5
*EQUATION
3
2182, 1, 1.0, 635, 1, -0.5, 652, 1, -0.5
*EQUATION
3
2182, 2, 1.0, 635, 2, -0.5, 652, 2, -0.5
*EQUATION
3
2182, 3, 1.0, 635, 3, -0.5, 652, 3, -0.5
*EQUATION
5
2183, 1, 1.0, 652, 1, -0.25, 635, 1, -0.25, 655, 1, -0.25, 653, 1, -0.25
*EQUATION
5
2183, 2, 1.0, 652, 2, -0.25, 635, 2, -0.25, 655, 2, -0.25, 653, 2, -0.25
*EQUATION
5
2183, 3, 1.0, 652, 3, -0.25, 635, 3, -0.25, 655, 3, -0.25, 653, 3, -0.25
*EQUATION
3
2184, 1, 1.0, 635, 1, -0.5, 655, 1, -0.5
*EQUATION
3
2184, 2, 1.0, 635, 2, -0.5, 655, 2, -0.5
*EQUATION
3
2184, 3, 1.0, 635, 3, -0.5, 655, 3, -0.5
*EQUATION
5
2187, 1, 1.0, 607, 1, -0.25, 655, 1, -0.25, 656, 1, -0.25, 608, 1, -0.25
*EQUATION
5
2187, 2, 1.0, 607, 2, -0.25, 655, 2, -0.25, 656, 2, -0.25, 608, 2, -0.25
*EQUATION
5
2187, 3, 1.0, 607, 3, -0.25, 655, 3, -0.25, 656, 3, -0.25, 608, 3, -0.25
*EQUATION
3
2188, 1, 1.0, 608, 1, -0.5, 656, 1, -0.5
*EQUATION
3
2188, 2, 1.0, 608, 2, -0.5, 656, 2, -0.5
*EQUATION
3
2188, 3, 1.0, 608, 3, -0.5, 656, 3, -0.5
*EQUATION
3
2189, 1, 1.0, 594, 1, -0.5, 642, 1, -0.5
*EQUATION
3
2189, 2, 1.0, 594, 2, -0.5, 642, 2, -0.5
*EQUATION
3
2189, 3, 1.0, 594, 3, -0.5, 642, 3, -0.5
*EQUATION
5
2190, 1, 1.0, 594, 1, -0.25, 642, 1, -0.25, 659, 1, -0.25, 611, 1, -0.25
*EQUATION
5
2190, 2, 1.0, 594, 2, -0.25, 642, 2, -0.25, 659, 2, -0.25, 611, 2, -0.25
*EQUATION
5
2190, 3, 1.0, 594, 3, -0.25, 642, 3, -0.25, 659, 3, -0.25, 611, 3, -0.25
*EQUATION
3
2191, 1, 1.0, 611, 1, -0.5, 659, 1, -0.5
*EQUATION
3
2191, 2, 1.0, 611, 2, -0.5, 659, 2, -0.5
*EQUATION
3
2191, 3, 1.0, 611, 3, -0.5, 659, 3, -0.5
*EQUATION
3
2198, 1, 1.0, 642, 1, -0.5, 659, 1, -0.5
*EQUATION
3
2198, 2, 1.0, 642, 2, -0.5, 659, 2, -0.5
*EQUATION
3
2198, 3, 1.0, 642, 3, -0.5, 659, 3, -0.5
*EQUATION
5
2202, 1, 1.0, 611, 1, -0.25, 659, 1, -0.25, 660, 1, -0.25, 612, 1, -0.25
*EQUATION
5
2202, 2, 1.0, 611, 2, -0.25, 659, 2, -0.25, 660, 2, -0.25, 612, 2, -0.25
*EQUATION
5
2202, 3, 1.0, 611, 3, -0.25, 659, 3, -0.25, 660, 3, -0.25, 612, 3, -0.25
*EQUATION
3
2203, 1, 1.0, 612, 1, -0.5, 660, 1, -0.5
*EQUATION
3
2203, 2, 1.0, 612, 2, -0.5, 660, 2, -0.5
*EQUATION
3
2203, 3, 1.0, 612, 3, -0.5, 660, 3, -0.5
*EQUATION
3
2208, 1, 1.0, 659, 1, -0.5, 660, 1, -0.5
*EQUATION
3
2208, 2, 1.0, 659, 2, -0.5, 660, 2, -0.5
*EQUATION
3
2208, 3, 1.0, 659, 3, -0.5, 660, 3, -0.5
*EQUATION
3
2224, 1, 1.0, 665, 1, -0.5, 666, 1, -0.5
*EQUATION
3
2224, 2, 1.0, 665, 2, -0.5, 666, 2, -0.5
*EQUATION
3
2224, 3, 1.0, 665, 3, -0.5, 666, 3, -0.5
*EQUATION
5
2235, 1, 1.0, 665, 1, -0.25, 668, 1, -0.25, 669, 1, -0.25, 666, 1, -0.25
*EQUATION
5
2235, 2, 1.0, 665, 2, -0.25, 668, 2, -0.25, 669, 2, -0.25, 666, 2, -0.25
*EQUATION
5
2235, 3, 1.0, 665, 3, -0.25, 668, 3, -0.25, 669, 3, -0.25, 666, 3, -0.25
*EQUATION
3
2236, 1, 1.0, 666, 1, -0.5, 669, 1, -0.5
*EQUATION
3
2236, 2, 1.0, 666, 2, -0.5, 669, 2, -0.5
*EQUATION
3
2236, 3, 1.0, 666, 3, -0.5, 669, 3, -0.5
*EQUATION
3
2237, 1, 1.0, 668, 1, -0.5, 669, 1, -0.5
*EQUATION
3
2237, 2, 1.0, 668, 2, -0.5, 669, 2, -0.5
*EQUATION
3
2237, 3, 1.0, 668, 3, -0.5, 669, 3, -0.5
*EQUATION
5
2248, 1, 1.0, 668, 1, -0.25, 671, 1, -0.25, 672, 1, -0.25, 669, 1, -0.25
*EQUATION
5
2248, 2, 1.0, 668, 2, -0.25, 671, 2, -0.25, 672, 2, -0.25, 669, 2, -0.25
*EQUATION
5
2248, 3, 1.0, 668, 3, -0.25, 671, 3, -0.25, 672, 3, -0.25, 669, 3, -0.25
*EQUATION
3
2249, 1, 1.0, 669, 1, -0.5, 672, 1, -0.5
*EQUATION
3
2249, 2, 1.0, 669, 2, -0.5, 672, 2, -0.5
*EQUATION
3
2249, 3, 1.0, 669, 3, -0.5, 672, 3, -0.5
*EQUATION
3
2250, 1, 1.0, 671, 1, -0.5, 672, 1, -0.5
*EQUATION
3
2250, 2, 1.0, 671, 2, -0.5, 672, 2, -0.5
*EQUATION
3
2250, 3, 1.0, 671, 3, -0.5, 672, 3, -0.5
*EQUATION
5
2251, 1, 1.0, 650, 1, -0.25, 698, 1, -0.25, 699, 1, -0.25, 651, 1, -0.25
*EQUATION
5
2251, 2, 1.0, 650, 2, -0.25, 698, 2, -0.25, 699, 2, -0.25, 651, 2, -0.25
*EQUATION
5
2251, 3, 1.0, 650, 3, -0.25, 698, 3, -0.25, 699, 3, -0.25, 651, 3, -0.25
*EQUATION
3
2252, 1, 1.0, 651, 1, -0.5, 699, 1, -0.5
*EQUATION
3
2252, 2, 1.0, 651, 2, -0.5, 699, 2, -0.5
*EQUATION
3
2252, 3, 1.0, 651, 3, -0.5, 699, 3, -0.5
*EQUATION
3
2255, 1, 1.0, 655, 1, -0.5, 657, 1, -0.5
*EQUATION
3
2255, 2, 1.0, 655, 2, -0.5, 657, 2, -0.5
*EQUATION
3
2255, 3, 1.0, 655, 3, -0.5, 657, 3, -0.5
*EQUATION
5
2256, 1, 1.0, 655, 1, -0.25, 657, 1, -0.25, 658, 1, -0.25, 656, 1, -0.25
*EQUATION
5
2256, 2, 1.0, 655, 2, -0.25, 657, 2, -0.25, 658, 2, -0.25, 656, 2, -0.25
*EQUATION
5
2256, 3, 1.0, 655, 3, -0.25, 657, 3, -0.25, 658, 3, -0.25, 656, 3, -0.25
*EQUATION
3
2257, 1, 1.0, 656, 1, -0.5, 658, 1, -0.5
*EQUATION
3
2257, 2, 1.0, 656, 2, -0.5, 658, 2, -0.5
*EQUATION
3
2257, 3, 1.0, 656, 3, -0.5, 658, 3, -0.5
*EQUATION
3
2258, 1, 1.0, 657, 1, -0.5, 658, 1, -0.5
*EQUATION
3
2258, 2, 1.0, 657, 2, -0.5, 658, 2, -0.5
*EQUATION
3
2258, 3, 1.0, 657, 3, -0.5, 658, 3, -0.5
*EQUATION
5
2259, 1, 1.0, 655, 1, -0.25, 703, 1, -0.25, 705, 1, -0.25, 657, 1, -0.25
*EQUATION
5
2259, 2, 1.0, 655, 2, -0.25, 703, 2, -0.25, 705, 2, -0.25, 657, 2, -0.25
*EQUATION
5
2259, 3, 1.0, 655, 3, -0.25, 703, 3, -0.25, 705, 3, -0.25, 657, 3, -0.25
*EQUATION
3
2262, 1, 1.0, 657, 1, -0.5, 705, 1, -0.5
*EQUATION
3
2262, 2, 1.0, 657, 2, -0.5, 705, 2, -0.5
*EQUATION
3
2262, 3, 1.0, 657, 3, -0.5, 705, 3, -0.5
*EQUATION
3
2265, 1, 1.0, 703, 1, -0.5, 705, 1, -0.5
*EQUATION
3
2265, 2, 1.0, 703, 2, -0.5, 705, 2, -0.5
*EQUATION
3
2265, 3, 1.0, 703, 3, -0.5, 705, 3, -0.5
*EQUATION
3
2269, 1, 1.0, 657, 1, -0.5, 659, 1, -0.5
*EQUATION
3
2269, 2, 1.0, 657, 2, -0.5, 659, 2, -0.5
*EQUATION
3
2269, 3, 1.0, 657, 3, -0.5, 659, 3, -0.5
*EQUATION
5
2270, 1, 1.0, 657, 1, -0.25, 659, 1, -0.25, 660, 1, -0.25, 658, 1, -0.25
*EQUATION
5
2270, 2, 1.0, 657, 2, -0.25, 659, 2, -0.25, 660, 2, -0.25, 658, 2, -0.25
*EQUATION
5
2270, 3, 1.0, 657, 3, -0.25, 659, 3, -0.25, 660, 3, -0.25, 658, 3, -0.25
*EQUATION
3
2271, 1, 1.0, 658, 1, -0.5, 660, 1, -0.5
*EQUATION
3
2271, 2, 1.0, 658, 2, -0.5, 660, 2, -0.5
*EQUATION
3
2271, 3, 1.0, 658, 3, -0.5, 660, 3, -0.5
*EQUATION
5
2272, 1, 1.0, 657, 1, -0.25, 705, 1, -0.25, 707, 1, -0.25, 659, 1, -0.25
*EQUATION
5
2272, 2, 1.0, 657, 2, -0.25, 705, 2, -0.25, 707, 2, -0.25, 659, 2, -0.25
*EQUATION
5
2272, 3, 1.0, 657, 3, -0.25, 705, 3, -0.25, 707, 3, -0.25, 659, 3, -0.25
*EQUATION
3
2275, 1, 1.0, 659, 1, -0.5, 707, 1, -0.5
*EQUATION
3
2275, 2, 1.0, 659, 2, -0.5, 707, 2, -0.5
*EQUATION
3
2275, 3, 1.0, 659, 3, -0.5, 707, 3, -0.5
*EQUATION
3
2278, 1, 1.0, 705, 1, -0.5, 707, 1, -0.5
*EQUATION
3
2278, 2, 1.0, 705, 2, -0.5, 707, 2, -0.5
*EQUATION
3
2278, 3, 1.0, 705, 3, -0.5, 707, 3, -0.5
*EQUATION
3
2281, 1, 1.0, 642, 1, -0.5, 690, 1, -0.5
*EQUATION
3
2281, 2, 1.0, 642, 2, -0.5, 690, 2, -0.5
*EQUATION
3
2281, 3, 1.0, 642, 3, -0.5, 690, 3, -0.5
*EQUATION
5
2282, 1, 1.0, 642, 1, -0.25, 690, 1, -0.25, 707, 1, -0.25, 659, 1, -0.25
*EQUATION
5
2282, 2, 1.0, 642, 2, -0.25, 690, 2, -0.25, 707, 2, -0.25, 659, 2, -0.25
*EQUATION
5
2282, 3, 1.0, 642, 3, -0.25, 690, 3, -0.25, 707, 3, -0.25, 659, 3, -0.25
*EQUATION
3
2286, 1, 1.0, 690, 1, -0.5, 707, 1, -0.5
*EQUATION
3
2286, 2, 1.0, 690, 2, -0.5, 707, 2, -0.5
*EQUATION
3
2286, 3, 1.0, 690, 3, -0.5, 707, 3, -0.5
*EQUATION
3
2287, 1, 1.0, 690, 1, -0.5, 709, 1, -0.5
*EQUATION
3
2287, 2, 1.0, 690, 2, -0.5, 709, 2, -0.5
*EQUATION
3
2287, 3, 1.0, 690, 3, -0.5, 709, 3, -0.5
*EQUATION
5
2288, 1, 1.0, 690, 1, -0.25, 709, 1, -0.25, 710, 1, -0.25, 707, 1, -0.25
*EQUATION
5
2288, 2, 1.0, 690, 2, -0.25, 709, 2, -0.25, 710, 2, -0.25, 707, 2, -0.25
*EQUATION
5
2288, 3, 1.0, 690, 3, -0.25, 709, 3, -0.25, 710, 3, -0.25, 707, 3, -0.25
*EQUATION
5
2295, 1, 1.0, 665, 1, -0.25, 713, 1, -0.25, 714, 1, -0.25, 666, 1, -0.25
*EQUATION
5
2295, 2, 1.0, 665, 2, -0.25, 713, 2, -0.25, 714, 2, -0.25, 666, 2, -0.25
*EQUATION
5
2295, 3, 1.0, 665, 3, -0.25, 713, 3, -0.25, 714, 3, -0.25, 666, 3, -0.25
*EQUATION
3
2296, 1, 1.0, 666, 1, -0.5, 714, 1, -0.5
*EQUATION
3
2296, 2, 1.0, 666, 2, -0.5, 714, 2, -0.5
*EQUATION
3
2296, 3, 1.0, 666, 3, -0.5, 714, 3, -0.5
*EQUATION
5
2297, 1, 1.0, 703, 1, -0.25, 751, 1, -0.25, 753, 1, -0.25, 705, 1, -0.25
*EQUATION
5
2297, 2, 1.0, 703, 2, -0.25, 751, 2, -0.25, 753, 2, -0.25, 705, 2, -0.25
*EQUATION
5
2297, 3, 1.0, 703, 3, -0.25, 751, 3, -0.25, 753, 3, -0.25, 705, 3, -0.25
*EQUATION
3
2300, 1, 1.0, 705, 1, -0.5, 753, 1, -0.5
*EQUATION
3
2300, 2, 1.0, 705, 2, -0.5, 753, 2, -0.5
*EQUATION
3
2300, 3, 1.0, 705, 3, -0.5, 753, 3, -0.5
*EQUATION
3
2303, 1, 1.0, 751, 1, -0.5, 753, 1, -0.5
*EQUATION
3
2303, 2, 1.0, 751, 2, -0.5, 753, 2, -0.5
*EQUATION
3
2303, 3, 1.0, 751, 3, -0.5, 753, 3, -0.5
*EQUATION
5
2307, 1, 1.0, 705, 1, -0.25, 753, 1, -0.25, 755, 1, -0.25, 707, 1, -0.25
*EQUATION
5
2307, 2, 1.0, 705, 2, -0.25, 753, 2, -0.25, 755, 2, -0.25, 707, 2, -0.25
*EQUATION
5
2307, 3, 1.0, 705, 3, -0.25, 753, 3, -0.25, 755, 3, -0.25, 707, 3, -0.25
*EQUATION
3
2310, 1, 1.0, 753, 1, -0.5, 755, 1, -0.5
*EQUATION
3
2310, 2, 1.0, 753, 2, -0.5, 755, 2, -0.5
*EQUATION
3
2310, 3, 1.0, 753, 3, -0.5, 755, 3, -0.5
*EQUATION
5
2313, 1, 1.0, 751, 1, -0.25, 799, 1, -0.25, 801, 1, -0.25, 753, 1, -0.25
*EQUATION
5
2313, 2, 1.0, 751, 2, -0.25, 799, 2, -0.25, 801, 2, -0.25, 753, 2, -0.25
*EQUATION
5
2313, 3, 1.0, 751, 3, -0.25, 799, 3, -0.25, 801, 3, -0.25, 753, 3, -0.25
*EQUATION
3
2316, 1, 1.0, 753, 1, -0.5, 801, 1, -0.5
*EQUATION
3
2316, 2, 1.0, 753, 2, -0.5, 801, 2, -0.5
*EQUATION
3
2316, 3, 1.0, 753, 3, -0.5, 801, 3, -0.5
*EQUATION
3
2319, 1, 1.0, 799, 1, -0.5, 801, 1, -0.5
*EQUATION
3
2319, 2, 1.0, 799, 2, -0.5, 801, 2, -0.5
*EQUATION
3
2319, 3, 1.0, 799, 3, -0.5, 801, 3, -0.5
*EQUATION
5
2323, 1, 1.0, 753, 1, -0.25, 801, 1, -0.25, 803, 1, -0.25, 755, 1, -0.25
*EQUATION
5
2323, 2, 1.0, 753, 2, -0.25, 801, 2, -0.25, 803, 2, -0.25, 755, 2, -0.25
*EQUATION
5
2323, 3, 1.0, 753, 3, -0.25, 801, 3, -0.25, 803, 3, -0.25, 755, 3, -0.25
*EQUATION
3
2326, 1, 1.0, 801, 1, -0.5, 803, 1, -0.5
*EQUATION
3
2326, 2, 1.0, 801, 2, -0.5, 803, 2, -0.5
*EQUATION
3
2326, 3, 1.0, 801, 3, -0.5, 803, 3, -0.5
*EQUATION
5
2329, 1, 1.0, 799, 1, -0.25, 847, 1, -0.25, 849, 1, -0.25, 801, 1, -0.25
*EQUATION
5
2329, 2, 1.0, 799, 2, -0.25, 847, 2, -0.25, 849, 2, -0.25, 801, 2, -0.25
*EQUATION
5
2329, 3, 1.0, 799, 3, -0.25, 847, 3, -0.25, 849, 3, -0.25, 801, 3, -0.25
*EQUATION
3
2332, 1, 1.0, 801, 1, -0.5, 849, 1, -0.5
*EQUATION
3
2332, 2, 1.0, 801, 2, -0.5, 849, 2, -0.5
*EQUATION
3
2332, 3, 1.0, 801, 3, -0.5, 849, 3, -0.5
*EQUATION
3
2335, 1, 1.0, 847, 1, -0.5, 849, 1, -0.5
*EQUATION
3
2335, 2, 1.0, 847, 2, -0.5, 849, 2, -0.5
*EQUATION
3
2335, 3, 1.0, 847, 3, -0.5, 849, 3, -0.5
*EQUATION
5
2339, 1, 1.0, 801, 1, -0.25, 849, 1, -0.25, 851, 1, -0.25, 803, 1, -0.25
*EQUATION
5
2339, 2, 1.0, 801, 2, -0.25, 849, 2, -0.25, 851, 2, -0.25, 803, 2, -0.25
*EQUATION
5
2339, 3, 1.0, 801, 3, -0.25, 849, 3, -0.25, 851, 3, -0.25, 803, 3, -0.25
*EQUATION
3
2342, 1, 1.0, 849, 1, -0.5, 851, 1, -0.5
*EQUATION
3
2342, 2, 1.0, 849, 2, -0.5, 851, 2, -0.5
*EQUATION
3
2342, 3, 1.0, 849, 3, -0.5, 851, 3, -0.5
*EQUATION
5
2345, 1, 1.0, 847, 1, -0.25, 895, 1, -0.25, 897, 1, -0.25, 849, 1, -0.25
*EQUATION
5
2345, 2, 1.0, 847, 2, -0.25, 895, 2, -0.25, 897, 2, -0.25, 849, 2, -0.25
*EQUATION
5
2345, 3, 1.0, 847, 3, -0.25, 895, 3, -0.25, 897, 3, -0.25, 849, 3, -0.25
*EQUATION
3
2348, 1, 1.0, 849, 1, -0.5, 897, 1, -0.5
*EQUATION
3
2348, 2, 1.0, 849, 2, -0.5, 897, 2, -0.5
*EQUATION
3
2348, 3, 1.0, 849, 3, -0.5, 897, 3, -0.5
*EQUATION
3
2351, 1, 1.0, 895, 1, -0.5, 897, 1, -0.5
*EQUATION
3
2351, 2, 1.0, 895, 2, -0.5, 897, 2, -0.5
*EQUATION
3
2351, 3, 1.0, 895, 3, -0.5, 897, 3, -0.5
*EQUATION
5
2355, 1, 1.0, 849, 1, -0.25, 897, 1, -0.25, 899, 1, -0.25, 851, 1, -0.25
*EQUATION
5
2355, 2, 1.0, 849, 2, -0.25, 897, 2, -0.25, 899, 2, -0.25, 851, 2, -0.25
*EQUATION
5
2355, 3, 1.0, 849, 3, -0.25, 897, 3, -0.25, 899, 3, -0.25, 851, 3, -0.25
*EQUATION
3
2358, 1, 1.0, 897, 1, -0.5, 899, 1, -0.5
*EQUATION
3
2358, 2, 1.0, 897, 2, -0.5, 899, 2, -0.5
*EQUATION
3
2358, 3, 1.0, 897, 3, -0.5, 899, 3, -0.5
*BOUNDARY
CLAMP, 1, 3, 0.0
*STEP
*STATIC
*CLOAD
887, 3, -238.095238095
888, 3, -238.095238095
891, 3, -238.095238095
894, 3, -238.095238095
896, 3, -238.095238095
898, 3, -238.095238095
900, 3, -238.095238095
903, 3, -238.095238095
906, 3, -238.095238095
909, 3, -238.095238095
912, 3, -238.095238095
1478, 3, -238.095238095
1495, 3, -238.095238095
1512, 3, -238.095238095
1522, 3, -238.095238095
1536, 3, -238.095238095
1556, 3, -238.095238095
1573, 3, -238.095238095
1590, 3, -238.095238095
2353, 3, -238.095238095
2360, 3, -238.095238095
*NODE FILE
U
*EL FILE
S, ENER
*NODE PRINT, NSET=TIP_TOP
U
*NODE PRINT, NSET=CLAMP
RF
*EL PRINT, ELSET=EALL
ELSE
*ENERGY PRINT
*END STEP
