*HEADING
T01 S-LIN t01_s-lin_pso conforming C3D8 frozen T
units: mm, N, s, MPa, t. Illustrative steel, not a coupon card.
beam=T01 case=S-LIN job=t01_s-lin_pso type=C3D8
E=210000.0 nu=0.3 fy=235.0 load=-5000.0 N on TIP_TOP
*NODE, NSET=NALL
1, 0, -10, 0
2, 58.6338271529, -10, 3.51802962917
3, 58.6338271529, 0, 3.51802962917
4, 0, 0, 0
5, 0, -10, 40
6, 58.6338271529, -10, 42.8144237033
7, 58.6338271529, 0, 42.8144237033
8, 0, 0, 40
9, 0, -10, 80
10, 58.6338271529, -10, 82.1108177775
11, 58.6338271529, 0, 82.1108177775
12, 0, 0, 80
13, 0, -10, 120
14, 58.6338271529, -10, 121.407211852
15, 58.6338271529, 0, 121.407211852
16, 0, 0, 120
17, 0, -10, 160
18, 58.6338271529, -10, 160.703605926
19, 58.6338271529, 0, 160.703605926
20, 0, 0, 160
** ... 1804 like lines cut
*ELEMENT, TYPE=C3D8, ELSET=EALL
1, 1, 2, 3, 4, 5, 6, 7, 8
2, 5, 6, 7, 8, 9, 10, 11, 12
3, 9, 10, 11, 12, 13, 14, 15, 16
4, 13, 14, 15, 16, 17, 18, 19, 20
5, 17, 18, 19, 20, 21, 22, 23, 24
6, 4, 3, 25, 26, 8, 7, 27, 28
7, 8, 7, 27, 28, 12, 11, 29, 30
8, 12, 11, 29, 30, 16, 15, 31, 32
9, 16, 15, 31, 32, 20, 19, 33, 34
10, 20, 19, 33, 34, 24, 23, 35, 36
11, 37, 38, 39, 40, 41, 42, 43, 44
12, 41, 42, 43, 44, 45, 46, 47, 48
13, 40, 39, 49, 50, 44, 43, 51, 52
14, 44, 43, 51, 52, 48, 47, 53, 54
15, 50, 49, 55, 56, 52, 51, 57, 58
16, 52, 51, 57, 58, 54, 53, 59, 60
17, 56, 55, 22, 21, 58, 57, 61, 62
18, 58, 57, 61, 62, 60, 59, 63, 64
19, 21, 22, 23, 24, 62, 61, 65, 66
20, 62, 61, 65, 66, 64, 63, 67, 68
** ... 1090 like lines cut
*NSET, NSET=CLAMP
1, 4, 5, 8, 9, 12, 13, 16, 17, 20, 21, 24, 26, 28, 30, 32
34, 36, 37, 40, 41, 44, 45, 48, 50, 52, 54, 56, 58, 60, 62, 64
66, 68, 70, 72, 74, 76, 78, 80, 82, 84, 86, 88, 90, 92, 94, 96
*NSET, NSET=TIP_TOP
1799, 1800, 1803, 1806, 1808, 1810, 1812, 1815, 1818, 1821, 1824
*NSET, NSET=TIP_FLANGE
1799, 1800, 1803, 1806, 1808, 1810, 1812, 1815, 1818, 1821, 1824
*MATERIAL, NAME=STEEL
*ELASTIC
210000, 0.3
*SOLID SECTION, ELSET=EALL, MATERIAL=STEEL
*BOUNDARY
CLAMP, 1, 3, 0.0
*STEP
*STATIC
*CLOAD
1799, 3, -454.545454545
1800, 3, -454.545454545
1803, 3, -454.545454545
1806, 3, -454.545454545
1808, 3, -454.545454545
1810, 3, -454.545454545
1812, 3, -454.545454545
1815, 3, -454.545454545
1818, 3, -454.545454545
1821, 3, -454.545454545
1824, 3, -454.545454545
*NODE FILE
U
*EL FILE
S, ENER
*NODE PRINT, NSET=TIP_TOP
U
*NODE PRINT, NSET=CLAMP
RF
*EL PRINT, ELSET=EALL
ELSE
*ENERGY PRINT
*END STEP
