*HEADING
T08 S-KIN t08_s-kin_rev1 conforming C3D8 frozen T
units: mm, N, s, MPa, t. Illustrative steel, not a coupon card.
beam=T08 case=S-KIN job=t08_s-kin_rev1 type=C3D8
E=210000.0 nu=0.3 fy=235.0 load=-67819.39632994187 N on TIP_TOP
*NODE, NSET=NALL
1, 0, -16, 0
2, 48.3234052356, -15.7583829738, 3.02021282723
3, 48.3234052356, 0, 3.02021282723
4, 0, 0, 0
5, 0, -16, 42
6, 48.3234052356, -15.7583829738, 44.4161702618
7, 48.3234052356, 0, 44.4161702618
8, 0, 0, 42
9, 0, -16, 84
10, 48.3234052356, -15.7583829738, 85.8121276963
11, 48.3234052356, 0, 85.8121276963
12, 0, 0, 84
13, 0, -16, 126
14, 48.3234052356, -15.7583829738, 127.208085131
15, 48.3234052356, 0, 127.208085131
16, 0, 0, 126
17, 0, -16, 168
18, 48.3234052356, -15.7583829738, 168.604042565
19, 48.3234052356, 0, 168.604042565
20, 0, 0, 168
** ... 2284 like lines cut
*ELEMENT, TYPE=C3D8, ELSET=EALL
1, 1, 2, 3, 4, 5, 6, 7, 8
2, 5, 6, 7, 8, 9, 10, 11, 12
3, 9, 10, 11, 12, 13, 14, 15, 16
4, 13, 14, 15, 16, 17, 18, 19, 20
5, 17, 18, 19, 20, 21, 22, 23, 24
6, 4, 3, 25, 26, 8, 7, 27, 28
7, 8, 7, 27, 28, 12, 11, 29, 30
8, 12, 11, 29, 30, 16, 15, 31, 32
9, 16, 15, 31, 32, 20, 19, 33, 34
10, 20, 19, 33, 34, 24, 23, 35, 36
11, 37, 38, 39, 40, 41, 42, 43, 44
12, 41, 42, 43, 44, 45, 46, 47, 48
13, 40, 39, 49, 50, 44, 43, 51, 52
14, 44, 43, 51, 52, 48, 47, 53, 54
15, 50, 49, 55, 56, 52, 51, 57, 58
16, 52, 51, 57, 58, 54, 53, 59, 60
17, 56, 55, 22, 21, 58, 57, 61, 62
18, 58, 57, 61, 62, 60, 59, 63, 64
19, 21, 22, 23, 24, 62, 61, 65, 66
20, 62, 61, 65, 66, 64, 63, 67, 68
** ... 1390 like lines cut
*NSET, NSET=CLAMP
1, 4, 5, 8, 9, 12, 13, 16, 17, 20, 21, 24, 26, 28, 30, 32
34, 36, 37, 40, 41, 44, 45, 48, 50, 52, 54, 56, 58, 60, 62, 64
66, 68, 70, 72, 74, 76, 78, 80, 82, 84, 86, 88, 90, 92, 94, 96
*NSET, NSET=TIP_TOP
2279, 2280, 2283, 2286, 2288, 2290, 2292, 2295, 2298, 2301, 2304
*NSET, NSET=TIP_FLANGE
2279, 2280, 2283, 2286, 2288, 2290, 2292, 2295, 2298, 2301, 2304
*MATERIAL, NAME=STEEL
*ELASTIC
210000, 0.3
*PLASTIC, HARDENING=KINEMATIC
235, 0
320, 0.02
400, 0.15
*DENSITY
7.85e-09
*SOLID SECTION, ELSET=EALL, MATERIAL=STEEL
*BOUNDARY
CLAMP, 1, 3, 0.0
*STEP, NLGEOM, INC=80
*STATIC
0.05, 1.0, 1.0e-6, 0.1
*CLOAD
2279, 3, -6165.39966636
2280, 3, -6165.39966636
2283, 3, -6165.39966636
2286, 3, -6165.39966636
2288, 3, -6165.39966636
2290, 3, -6165.39966636
2292, 3, -6165.39966636
2295, 3, -6165.39966636
2298, 3, -6165.39966636
2301, 3, -6165.39966636
2304, 3, -6165.39966636
*NODE FILE
U
*EL FILE
S, PEEQ, ENER
*NODE PRINT, NSET=TIP_TOP
U
*NODE PRINT, NSET=CLAMP
RF
*EL PRINT, ELSET=EALL
ELSE
*ENERGY PRINT
*END STEP
*STEP, NLGEOM, INC=80
*STATIC
0.05, 1.0, 1.0e-6, 0.1
*CLOAD
2279, 3, 3082.69983318
2280, 3, 3082.69983318
2283, 3, 3082.69983318
2286, 3, 3082.69983318
2288, 3, 3082.69983318
2290, 3, 3082.69983318
2292, 3, 3082.69983318
2295, 3, 3082.69983318
2298, 3, 3082.69983318
2301, 3, 3082.69983318
2304, 3, 3082.69983318
*NODE FILE
U
*EL FILE
S, PEEQ, ENER
*NODE PRINT, NSET=TIP_TOP
U
*NODE PRINT, NSET=CLAMP
RF
*EL PRINT, ELSET=EALL
ELSE
*ENERGY PRINT
*END STEP
