*HEADING
T01 S-LIN hanging 8-split zz cycle 1
units: mm, N, s, MPa. Material is illustrative steel, not a coupon card.
E=210000.0 nu=0.3. load -5000.0 N on TIP_TOP.
*NODE, NSET=NALL
1, 0, -10, 0
2, 111.111111111, -10, 6.66666666667
3, 111.111111111, 0, 6.66666666667
4, 0, 0, 0
5, 0, -10, 40
6, 111.111111111, -10, 45.3333333333
7, 111.111111111, 0, 45.3333333333
8, 0, 0, 40
9, 0, -10, 80
10, 111.111111111, -10, 84
11, 111.111111111, 0, 84
12, 0, 0, 80
13, 0, -10, 120
14, 111.111111111, -10, 122.666666667
15, 111.111111111, 0, 122.666666667
16, 0, 0, 120
17, 0, -10, 160
18, 111.111111111, -10, 161.333333333
19, 111.111111111, 0, 161.333333333
20, 0, 0, 160
** ... 1093 like lines cut
*ELEMENT, TYPE=C3D8, ELSET=EALL
1, 1, 2, 3, 4, 5, 6, 7, 8
2, 5, 6, 7, 8, 9, 10, 11, 12
3, 9, 10, 11, 12, 13, 14, 15, 16
4, 13, 14, 15, 16, 17, 18, 19, 20
5, 17, 18, 19, 20, 21, 22, 23, 24
6, 4, 3, 25, 26, 8, 7, 27, 28
7, 8, 7, 27, 28, 12, 11, 29, 30
8, 12, 11, 29, 30, 16, 15, 31, 32
9, 16, 15, 31, 32, 20, 19, 33, 34
10, 20, 19, 33, 34, 24, 23, 35, 36
11, 37, 38, 39, 40, 41, 42, 43, 44
12, 41, 42, 43, 44, 45, 46, 47, 48
13, 40, 39, 49, 50, 44, 43, 51, 52
14, 44, 43, 51, 52, 48, 47, 53, 54
15, 50, 49, 55, 56, 52, 51, 57, 58
16, 52, 51, 57, 58, 54, 53, 59, 60
17, 56, 55, 22, 21, 58, 57, 61, 62
18, 58, 57, 61, 62, 60, 59, 63, 64
19, 21, 22, 23, 24, 62, 61, 65, 66
20, 62, 61, 65, 66, 64, 63, 67, 68
** ... 632 like lines cut
*NSET, NSET=CLAMP
1, 4, 5, 8, 9, 12, 13, 16, 17, 20, 21, 24, 26, 28, 30, 32
34, 36, 37, 40, 41, 44, 45, 48, 50, 52, 54, 56, 58, 60, 62, 64
66, 68, 70, 72, 74, 76, 78, 80, 82, 84, 86, 88, 90, 92, 94, 96
*NSET, NSET=TIP_TOP
887, 888, 891, 894, 896, 898, 900, 903, 906, 909, 912
*MATERIAL, NAME=STEEL
*ELASTIC
210000, 0.3
*SOLID SECTION, ELSET=EALL, MATERIAL=STEEL
*EQUATION
3
913, 1, 1.0, 481, 1, -0.5, 483, 1, -0.5
*EQUATION
3
913, 2, 1.0, 481, 2, -0.5, 483, 2, -0.5
*EQUATION
3
913, 3, 1.0, 481, 3, -0.5, 483, 3, -0.5
*EQUATION
3
914, 1, 1.0, 481, 1, -0.5, 482, 1, -0.5
*EQUATION
3
914, 2, 1.0, 481, 2, -0.5, 482, 2, -0.5
*EQUATION
3
914, 3, 1.0, 481, 3, -0.5, 482, 3, -0.5
*EQUATION
5
915, 1, 1.0, 481, 1, -0.25, 482, 1, -0.25, 484, 1, -0.25, 483, 1, -0.25
*EQUATION
5
915, 2, 1.0, 481, 2, -0.25, 482, 2, -0.25, 484, 2, -0.25, 483, 2, -0.25
*EQUATION
5
915, 3, 1.0, 481, 3, -0.25, 482, 3, -0.25, 484, 3, -0.25, 483, 3, -0.25
*EQUATION
3
916, 1, 1.0, 483, 1, -0.5, 484, 1, -0.5
*EQUATION
3
916, 2, 1.0, 483, 2, -0.5, 484, 2, -0.5
*EQUATION
3
916, 3, 1.0, 483, 3, -0.5, 484, 3, -0.5
*EQUATION
3
917, 1, 1.0, 482, 1, -0.5, 484, 1, -0.5
*EQUATION
3
917, 2, 1.0, 482, 2, -0.5, 484, 2, -0.5
*EQUATION
3
917, 3, 1.0, 482, 3, -0.5, 484, 3, -0.5
*EQUATION
3
920, 1, 1.0, 483, 1, -0.5, 531, 1, -0.5
*EQUATION
3
920, 2, 1.0, 483, 2, -0.5, 531, 2, -0.5
*EQUATION
3
920, 3, 1.0, 483, 3, -0.5, 531, 3, -0.5
*EQUATION
5
923, 1, 1.0, 483, 1, -0.25, 531, 1, -0.25, 532, 1, -0.25, 484, 1, -0.25
*EQUATION
5
923, 2, 1.0, 483, 2, -0.25, 531, 2, -0.25, 532, 2, -0.25, 484, 2, -0.25
*EQUATION
5
923, 3, 1.0, 483, 3, -0.25, 531, 3, -0.25, 532, 3, -0.25, 484, 3, -0.25
*EQUATION
3
926, 1, 1.0, 484, 1, -0.5, 532, 1, -0.5
*EQUATION
3
926, 2, 1.0, 484, 2, -0.5, 532, 2, -0.5
*EQUATION
3
926, 3, 1.0, 484, 3, -0.5, 532, 3, -0.5
*EQUATION
3
930, 1, 1.0, 531, 1, -0.5, 532, 1, -0.5
*EQUATION
3
930, 2, 1.0, 531, 2, -0.5, 532, 2, -0.5
*EQUATION
3
930, 3, 1.0, 531, 3, -0.5, 532, 3, -0.5
*EQUATION
3
932, 1, 1.0, 482, 1, -0.5, 493, 1, -0.5
*EQUATION
3
932, 2, 1.0, 482, 2, -0.5, 493, 2, -0.5
*EQUATION
3
932, 3, 1.0, 482, 3, -0.5, 493, 3, -0.5
*EQUATION
5
933, 1, 1.0, 482, 1, -0.25, 493, 1, -0.25, 494, 1, -0.25, 484, 1, -0.25
*EQUATION
5
933, 2, 1.0, 482, 2, -0.25, 493, 2, -0.25, 494, 2, -0.25, 484, 2, -0.25
*EQUATION
5
933, 3, 1.0, 482, 3, -0.25, 493, 3, -0.25, 494, 3, -0.25, 484, 3, -0.25
*EQUATION
3
934, 1, 1.0, 484, 1, -0.5, 494, 1, -0.5
*EQUATION
3
934, 2, 1.0, 484, 2, -0.5, 494, 2, -0.5
*EQUATION
3
934, 3, 1.0, 484, 3, -0.5, 494, 3, -0.5
*EQUATION
3
935, 1, 1.0, 493, 1, -0.5, 494, 1, -0.5
*EQUATION
3
935, 2, 1.0, 493, 2, -0.5, 494, 2, -0.5
*EQUATION
3
935, 3, 1.0, 493, 3, -0.5, 494, 3, -0.5
*EQUATION
5
938, 1, 1.0, 484, 1, -0.25, 532, 1, -0.25, 542, 1, -0.25, 494, 1, -0.25
*EQUATION
5
938, 2, 1.0, 484, 2, -0.25, 532, 2, -0.25, 542, 2, -0.25, 494, 2, -0.25
*EQUATION
5
938, 3, 1.0, 484, 3, -0.25, 532, 3, -0.25, 542, 3, -0.25, 494, 3, -0.25
*EQUATION
3
941, 1, 1.0, 494, 1, -0.5, 542, 1, -0.5
*EQUATION
3
941, 2, 1.0, 494, 2, -0.5, 542, 2, -0.5
*EQUATION
3
941, 3, 1.0, 494, 3, -0.5, 542, 3, -0.5
*EQUATION
3
944, 1, 1.0, 532, 1, -0.5, 542, 1, -0.5
*EQUATION
3
944, 2, 1.0, 532, 2, -0.5, 542, 2, -0.5
*EQUATION
3
944, 3, 1.0, 532, 3, -0.5, 542, 3, -0.5
*EQUATION
3
948, 1, 1.0, 531, 1, -0.5, 579, 1, -0.5
*EQUATION
3
948, 2, 1.0, 531, 2, -0.5, 579, 2, -0.5
*EQUATION
3
948, 3, 1.0, 531, 3, -0.5, 579, 3, -0.5
*EQUATION
5
951, 1, 1.0, 531, 1, -0.25, 579, 1, -0.25, 580, 1, -0.25, 532, 1, -0.25
*EQUATION
5
951, 2, 1.0, 531, 2, -0.25, 579, 2, -0.25, 580, 2, -0.25, 532, 2, -0.25
*EQUATION
5
951, 3, 1.0, 531, 3, -0.25, 579, 3, -0.25, 580, 3, -0.25, 532, 3, -0.25
*EQUATION
3
954, 1, 1.0, 532, 1, -0.5, 580, 1, -0.5
*EQUATION
3
954, 2, 1.0, 532, 2, -0.5, 580, 2, -0.5
*EQUATION
3
954, 3, 1.0, 532, 3, -0.5, 580, 3, -0.5
*EQUATION
3
958, 1, 1.0, 579, 1, -0.5, 580, 1, -0.5
*EQUATION
3
958, 2, 1.0, 579, 2, -0.5, 580, 2, -0.5
*EQUATION
3
958, 3, 1.0, 579, 3, -0.5, 580, 3, -0.5
*EQUATION
5
962, 1, 1.0, 532, 1, -0.25, 580, 1, -0.25, 590, 1, -0.25, 542, 1, -0.25
*EQUATION
5
962, 2, 1.0, 532, 2, -0.25, 580, 2, -0.25, 590, 2, -0.25, 542, 2, -0.25
*EQUATION
5
962, 3, 1.0, 532, 3, -0.25, 580, 3, -0.25, 590, 3, -0.25, 542, 3, -0.25
*EQUATION
3
965, 1, 1.0, 542, 1, -0.5, 590, 1, -0.5
*EQUATION
3
965, 2, 1.0, 542, 2, -0.5, 590, 2, -0.5
*EQUATION
3
965, 3, 1.0, 542, 3, -0.5, 590, 3, -0.5
*EQUATION
3
968, 1, 1.0, 580, 1, -0.5, 590, 1, -0.5
*EQUATION
3
968, 2, 1.0, 580, 2, -0.5, 590, 2, -0.5
*EQUATION
3
968, 3, 1.0, 580, 3, -0.5, 590, 3, -0.5
*EQUATION
3
972, 1, 1.0, 579, 1, -0.5, 627, 1, -0.5
*EQUATION
3
972, 2, 1.0, 579, 2, -0.5, 627, 2, -0.5
*EQUATION
3
972, 3, 1.0, 579, 3, -0.5, 627, 3, -0.5
*EQUATION
5
975, 1, 1.0, 579, 1, -0.25, 627, 1, -0.25, 628, 1, -0.25, 580, 1, -0.25
*EQUATION
5
975, 2, 1.0, 579, 2, -0.25, 627, 2, -0.25, 628, 2, -0.25, 580, 2, -0.25
*EQUATION
5
975, 3, 1.0, 579, 3, -0.25, 627, 3, -0.25, 628, 3, -0.25, 580, 3, -0.25
*EQUATION
3
978, 1, 1.0, 580, 1, -0.5, 628, 1, -0.5
*EQUATION
3
978, 2, 1.0, 580, 2, -0.5, 628, 2, -0.5
*EQUATION
3
978, 3, 1.0, 580, 3, -0.5, 628, 3, -0.5
*EQUATION
3
982, 1, 1.0, 627, 1, -0.5, 628, 1, -0.5
*EQUATION
3
982, 2, 1.0, 627, 2, -0.5, 628, 2, -0.5
*EQUATION
3
982, 3, 1.0, 627, 3, -0.5, 628, 3, -0.5
*EQUATION
5
986, 1, 1.0, 580, 1, -0.25, 628, 1, -0.25, 638, 1, -0.25, 590, 1, -0.25
*EQUATION
5
986, 2, 1.0, 580, 2, -0.25, 628, 2, -0.25, 638, 2, -0.25, 590, 2, -0.25
*EQUATION
5
986, 3, 1.0, 580, 3, -0.25, 628, 3, -0.25, 638, 3, -0.25, 590, 3, -0.25
*EQUATION
3
989, 1, 1.0, 590, 1, -0.5, 638, 1, -0.5
*EQUATION
3
989, 2, 1.0, 590, 2, -0.5, 638, 2, -0.5
*EQUATION
3
989, 3, 1.0, 590, 3, -0.5, 638, 3, -0.5
*EQUATION
3
992, 1, 1.0, 628, 1, -0.5, 638, 1, -0.5
*EQUATION
3
992, 2, 1.0, 628, 2, -0.5, 638, 2, -0.5
*EQUATION
3
992, 3, 1.0, 628, 3, -0.5, 638, 3, -0.5
*EQUATION
3
996, 1, 1.0, 627, 1, -0.5, 675, 1, -0.5
*EQUATION
3
996, 2, 1.0, 627, 2, -0.5, 675, 2, -0.5
*EQUATION
3
996, 3, 1.0, 627, 3, -0.5, 675, 3, -0.5
*EQUATION
5
999, 1, 1.0, 627, 1, -0.25, 675, 1, -0.25, 676, 1, -0.25, 628, 1, -0.25
*EQUATION
5
999, 2, 1.0, 627, 2, -0.25, 675, 2, -0.25, 676, 2, -0.25, 628, 2, -0.25
*EQUATION
5
999, 3, 1.0, 627, 3, -0.25, 675, 3, -0.25, 676, 3, -0.25, 628, 3, -0.25
*EQUATION
3
1002, 1, 1.0, 628, 1, -0.5, 676, 1, -0.5
*EQUATION
3
1002, 2, 1.0, 628, 2, -0.5, 676, 2, -0.5
*EQUATION
3
1002, 3, 1.0, 628, 3, -0.5, 676, 3, -0.5
*EQUATION
3
1006, 1, 1.0, 675, 1, -0.5, 676, 1, -0.5
*EQUATION
3
1006, 2, 1.0, 675, 2, -0.5, 676, 2, -0.5
*EQUATION
3
1006, 3, 1.0, 675, 3, -0.5, 676, 3, -0.5
*EQUATION
5
1010, 1, 1.0, 628, 1, -0.25, 676, 1, -0.25, 686, 1, -0.25, 638, 1, -0.25
*EQUATION
5
1010, 2, 1.0, 628, 2, -0.25, 676, 2, -0.25, 686, 2, -0.25, 638, 2, -0.25
*EQUATION
5
1010, 3, 1.0, 628, 3, -0.25, 676, 3, -0.25, 686, 3, -0.25, 638, 3, -0.25
*EQUATION
3
1013, 1, 1.0, 638, 1, -0.5, 686, 1, -0.5
*EQUATION
3
1013, 2, 1.0, 638, 2, -0.5, 686, 2, -0.5
*EQUATION
3
1013, 3, 1.0, 638, 3, -0.5, 686, 3, -0.5
*EQUATION
3
1016, 1, 1.0, 676, 1, -0.5, 686, 1, -0.5
*EQUATION
3
1016, 2, 1.0, 676, 2, -0.5, 686, 2, -0.5
*EQUATION
3
1016, 3, 1.0, 676, 3, -0.5, 686, 3, -0.5
*EQUATION
3
1020, 1, 1.0, 675, 1, -0.5, 723, 1, -0.5
*EQUATION
3
1020, 2, 1.0, 675, 2, -0.5, 723, 2, -0.5
*EQUATION
3
1020, 3, 1.0, 675, 3, -0.5, 723, 3, -0.5
*EQUATION
5
1023, 1, 1.0, 675, 1, -0.25, 723, 1, -0.25, 724, 1, -0.25, 676, 1, -0.25
*EQUATION
5
1023, 2, 1.0, 675, 2, -0.25, 723, 2, -0.25, 724, 2, -0.25, 676, 2, -0.25
*EQUATION
5
1023, 3, 1.0, 675, 3, -0.25, 723, 3, -0.25, 724, 3, -0.25, 676, 3, -0.25
*EQUATION
3
1026, 1, 1.0, 676, 1, -0.5, 724, 1, -0.5
*EQUATION
3
1026, 2, 1.0, 676, 2, -0.5, 724, 2, -0.5
*EQUATION
3
1026, 3, 1.0, 676, 3, -0.5, 724, 3, -0.5
*EQUATION
3
1030, 1, 1.0, 723, 1, -0.5, 724, 1, -0.5
*EQUATION
3
1030, 2, 1.0, 723, 2, -0.5, 724, 2, -0.5
*EQUATION
3
1030, 3, 1.0, 723, 3, -0.5, 724, 3, -0.5
*EQUATION
5
1034, 1, 1.0, 676, 1, -0.25, 724, 1, -0.25, 734, 1, -0.25, 686, 1, -0.25
*EQUATION
5
1034, 2, 1.0, 676, 2, -0.25, 724, 2, -0.25, 734, 2, -0.25, 686, 2, -0.25
*EQUATION
5
1034, 3, 1.0, 676, 3, -0.25, 724, 3, -0.25, 734, 3, -0.25, 686, 3, -0.25
*EQUATION
3
1037, 1, 1.0, 686, 1, -0.5, 734, 1, -0.5
*EQUATION
3
1037, 2, 1.0, 686, 2, -0.5, 734, 2, -0.5
*EQUATION
3
1037, 3, 1.0, 686, 3, -0.5, 734, 3, -0.5
*EQUATION
3
1040, 1, 1.0, 724, 1, -0.5, 734, 1, -0.5
*EQUATION
3
1040, 2, 1.0, 724, 2, -0.5, 734, 2, -0.5
*EQUATION
3
1040, 3, 1.0, 724, 3, -0.5, 734, 3, -0.5
*EQUATION
3
1044, 1, 1.0, 723, 1, -0.5, 771, 1, -0.5
*EQUATION
3
1044, 2, 1.0, 723, 2, -0.5, 771, 2, -0.5
*EQUATION
3
1044, 3, 1.0, 723, 3, -0.5, 771, 3, -0.5
*EQUATION
5
1047, 1, 1.0, 723, 1, -0.25, 771, 1, -0.25, 772, 1, -0.25, 724, 1, -0.25
*EQUATION
5
1047, 2, 1.0, 723, 2, -0.25, 771, 2, -0.25, 772, 2, -0.25, 724, 2, -0.25
*EQUATION
5
1047, 3, 1.0, 723, 3, -0.25, 771, 3, -0.25, 772, 3, -0.25, 724, 3, -0.25
*EQUATION
3
1050, 1, 1.0, 724, 1, -0.5, 772, 1, -0.5
*EQUATION
3
1050, 2, 1.0, 724, 2, -0.5, 772, 2, -0.5
*EQUATION
3
1050, 3, 1.0, 724, 3, -0.5, 772, 3, -0.5
*EQUATION
3
1054, 1, 1.0, 771, 1, -0.5, 772, 1, -0.5
*EQUATION
3
1054, 2, 1.0, 771, 2, -0.5, 772, 2, -0.5
*EQUATION
3
1054, 3, 1.0, 771, 3, -0.5, 772, 3, -0.5
*EQUATION
5
1058, 1, 1.0, 724, 1, -0.25, 772, 1, -0.25, 782, 1, -0.25, 734, 1, -0.25
*EQUATION
5
1058, 2, 1.0, 724, 2, -0.25, 772, 2, -0.25, 782, 2, -0.25, 734, 2, -0.25
*EQUATION
5
1058, 3, 1.0, 724, 3, -0.25, 772, 3, -0.25, 782, 3, -0.25, 734, 3, -0.25
*EQUATION
3
1061, 1, 1.0, 734, 1, -0.5, 782, 1, -0.5
*EQUATION
3
1061, 2, 1.0, 734, 2, -0.5, 782, 2, -0.5
*EQUATION
3
1061, 3, 1.0, 734, 3, -0.5, 782, 3, -0.5
*EQUATION
3
1064, 1, 1.0, 772, 1, -0.5, 782, 1, -0.5
*EQUATION
3
1064, 2, 1.0, 772, 2, -0.5, 782, 2, -0.5
*EQUATION
3
1064, 3, 1.0, 772, 3, -0.5, 782, 3, -0.5
*EQUATION
3
1068, 1, 1.0, 771, 1, -0.5, 819, 1, -0.5
*EQUATION
3
1068, 2, 1.0, 771, 2, -0.5, 819, 2, -0.5
*EQUATION
3
1068, 3, 1.0, 771, 3, -0.5, 819, 3, -0.5
*EQUATION
5
1071, 1, 1.0, 771, 1, -0.25, 819, 1, -0.25, 820, 1, -0.25, 772, 1, -0.25
*EQUATION
5
1071, 2, 1.0, 771, 2, -0.25, 819, 2, -0.25, 820, 2, -0.25, 772, 2, -0.25
*EQUATION
5
1071, 3, 1.0, 771, 3, -0.25, 819, 3, -0.25, 820, 3, -0.25, 772, 3, -0.25
*EQUATION
3
1074, 1, 1.0, 772, 1, -0.5, 820, 1, -0.5
*EQUATION
3
1074, 2, 1.0, 772, 2, -0.5, 820, 2, -0.5
*EQUATION
3
1074, 3, 1.0, 772, 3, -0.5, 820, 3, -0.5
*EQUATION
3
1078, 1, 1.0, 819, 1, -0.5, 820, 1, -0.5
*EQUATION
3
1078, 2, 1.0, 819, 2, -0.5, 820, 2, -0.5
*EQUATION
3
1078, 3, 1.0, 819, 3, -0.5, 820, 3, -0.5
*EQUATION
5
1082, 1, 1.0, 772, 1, -0.25, 820, 1, -0.25, 830, 1, -0.25, 782, 1, -0.25
*EQUATION
5
1082, 2, 1.0, 772, 2, -0.25, 820, 2, -0.25, 830, 2, -0.25, 782, 2, -0.25
*EQUATION
5
1082, 3, 1.0, 772, 3, -0.25, 820, 3, -0.25, 830, 3, -0.25, 782, 3, -0.25
*EQUATION
3
1085, 1, 1.0, 782, 1, -0.5, 830, 1, -0.5
*EQUATION
3
1085, 2, 1.0, 782, 2, -0.5, 830, 2, -0.5
*EQUATION
3
1085, 3, 1.0, 782, 3, -0.5, 830, 3, -0.5
*EQUATION
3
1088, 1, 1.0, 820, 1, -0.5, 830, 1, -0.5
*EQUATION
3
1088, 2, 1.0, 820, 2, -0.5, 830, 2, -0.5
*EQUATION
3
1088, 3, 1.0, 820, 3, -0.5, 830, 3, -0.5
*EQUATION
3
1092, 1, 1.0, 819, 1, -0.5, 867, 1, -0.5
*EQUATION
3
1092, 2, 1.0, 819, 2, -0.5, 867, 2, -0.5
*EQUATION
3
1092, 3, 1.0, 819, 3, -0.5, 867, 3, -0.5
*EQUATION
5
1095, 1, 1.0, 819, 1, -0.25, 867, 1, -0.25, 868, 1, -0.25, 820, 1, -0.25
*EQUATION
5
1095, 2, 1.0, 819, 2, -0.25, 867, 2, -0.25, 868, 2, -0.25, 820, 2, -0.25
*EQUATION
5
1095, 3, 1.0, 819, 3, -0.25, 867, 3, -0.25, 868, 3, -0.25, 820, 3, -0.25
*EQUATION
3
1098, 1, 1.0, 820, 1, -0.5, 868, 1, -0.5
*EQUATION
3
1098, 2, 1.0, 820, 2, -0.5, 868, 2, -0.5
*EQUATION
3
1098, 3, 1.0, 820, 3, -0.5, 868, 3, -0.5
*EQUATION
3
1102, 1, 1.0, 867, 1, -0.5, 868, 1, -0.5
*EQUATION
3
1102, 2, 1.0, 867, 2, -0.5, 868, 2, -0.5
*EQUATION
3
1102, 3, 1.0, 867, 3, -0.5, 868, 3, -0.5
*EQUATION
5
1106, 1, 1.0, 820, 1, -0.25, 868, 1, -0.25, 878, 1, -0.25, 830, 1, -0.25
*EQUATION
5
1106, 2, 1.0, 820, 2, -0.25, 868, 2, -0.25, 878, 2, -0.25, 830, 2, -0.25
*EQUATION
5
1106, 3, 1.0, 820, 3, -0.25, 868, 3, -0.25, 878, 3, -0.25, 830, 3, -0.25
*EQUATION
3
1109, 1, 1.0, 830, 1, -0.5, 878, 1, -0.5
*EQUATION
3
1109, 2, 1.0, 830, 2, -0.5, 878, 2, -0.5
*EQUATION
3
1109, 3, 1.0, 830, 3, -0.5, 878, 3, -0.5
*EQUATION
3
1112, 1, 1.0, 868, 1, -0.5, 878, 1, -0.5
*EQUATION
3
1112, 2, 1.0, 868, 2, -0.5, 878, 2, -0.5
*EQUATION
3
1112, 3, 1.0, 868, 3, -0.5, 878, 3, -0.5
*BOUNDARY
CLAMP, 1, 3, 0.0
*STEP
*STATIC
*CLOAD
887, 3, -454.545454545
888, 3, -454.545454545
891, 3, -454.545454545
894, 3, -454.545454545
896, 3, -454.545454545
898, 3, -454.545454545
900, 3, -454.545454545
903, 3, -454.545454545
906, 3, -454.545454545
909, 3, -454.545454545
912, 3, -454.545454545
*NODE FILE
U
*EL FILE
S, ENER
*NODE PRINT, NSET=TIP_TOP
U
*NODE PRINT, NSET=CLAMP
RF
*EL PRINT, ELSET=EALL
ELSE
*ENERGY PRINT
*END STEP
