*HEADING
T01 S-LIN hanging 8-split zz cycle 3
units: mm, N, s, MPa. Material is illustrative steel, not a coupon card.
E=210000.0 nu=0.3. load -5000.0 N on TIP_TOP.
*NODE, NSET=NALL
1, 0, -10, 0
2, 111.111111111, -10, 6.66666666667
3, 111.111111111, 0, 6.66666666667
4, 0, 0, 0
5, 0, -10, 40
6, 111.111111111, -10, 45.3333333333
7, 111.111111111, 0, 45.3333333333
8, 0, 0, 40
9, 0, -10, 80
10, 111.111111111, -10, 84
11, 111.111111111, 0, 84
12, 0, 0, 80
13, 0, -10, 120
14, 111.111111111, -10, 122.666666667
15, 111.111111111, 0, 122.666666667
16, 0, 0, 120
17, 0, -10, 160
18, 111.111111111, -10, 161.333333333
19, 111.111111111, 0, 161.333333333
20, 0, 0, 160
** ... 1675 like lines cut
*ELEMENT, TYPE=C3D8, ELSET=EALL
1, 1, 1119, 1122, 1115, 1114, 1120, 1123, 1116
2, 1114, 1120, 1123, 1116, 5, 1121, 1124, 1117
3, 1115, 1122, 1125, 4, 1116, 1123, 1126, 1118
4, 1116, 1123, 1126, 1118, 1117, 1124, 1127, 8
5, 1119, 2, 1129, 1122, 1120, 1128, 1130, 1123
6, 1120, 1128, 1130, 1123, 1121, 6, 1131, 1124
7, 1122, 1129, 3, 1125, 1123, 1130, 1132, 1126
8, 1123, 1130, 1132, 1126, 1124, 1131, 7, 1127
9, 5, 6, 7, 8, 9, 10, 11, 12
10, 9, 10, 11, 12, 13, 14, 15, 16
11, 13, 14, 15, 16, 17, 18, 19, 20
12, 17, 18, 19, 20, 21, 22, 23, 24
13, 4, 1125, 1137, 1133, 1118, 1126, 1138, 1134
14, 1118, 1126, 1138, 1134, 8, 1127, 1139, 1135
15, 1133, 1137, 1140, 26, 1134, 1138, 1141, 1136
16, 1134, 1138, 1141, 1136, 1135, 1139, 1142, 28
17, 1125, 3, 1143, 1137, 1126, 1132, 1144, 1138
18, 1126, 1132, 1144, 1138, 1127, 7, 1145, 1139
19, 1137, 1143, 25, 1140, 1138, 1144, 1146, 1141
20, 1138, 1144, 1146, 1141, 1139, 1145, 27, 1142
** ... 1045 like lines cut
*NSET, NSET=CLAMP
1, 4, 5, 8, 9, 12, 13, 16, 17, 20, 21, 24, 26, 28, 30, 32
34, 36, 37, 40, 41, 44, 45, 48, 50, 52, 54, 56, 58, 60, 62, 64
66, 68, 70, 72, 74, 76, 78, 80, 82, 84, 86, 88, 90, 92, 94, 96
1114, 1115, 1116, 1117, 1118, 1133, 1134, 1135, 1136
*NSET, NSET=TIP_TOP
887, 888, 891, 894, 896, 898, 900, 903, 906, 909, 912
*MATERIAL, NAME=STEEL
*ELASTIC
210000, 0.3
*SOLID SECTION, ELSET=EALL, MATERIAL=STEEL
*EQUATION
3
916, 1, 1.0, 483, 1, -0.5, 484, 1, -0.5
*EQUATION
3
916, 2, 1.0, 483, 2, -0.5, 484, 2, -0.5
*EQUATION
3
916, 3, 1.0, 483, 3, -0.5, 484, 3, -0.5
*EQUATION
3
1121, 1, 1.0, 5, 1, -0.5, 6, 1, -0.5
*EQUATION
3
1121, 2, 1.0, 5, 2, -0.5, 6, 2, -0.5
*EQUATION
3
1121, 3, 1.0, 5, 3, -0.5, 6, 3, -0.5
*EQUATION
5
1124, 1, 1.0, 5, 1, -0.25, 6, 1, -0.25, 7, 1, -0.25, 8, 1, -0.25
*EQUATION
5
1124, 2, 1.0, 5, 2, -0.25, 6, 2, -0.25, 7, 2, -0.25, 8, 2, -0.25
*EQUATION
5
1124, 3, 1.0, 5, 3, -0.25, 6, 3, -0.25, 7, 3, -0.25, 8, 3, -0.25
*EQUATION
3
1127, 1, 1.0, 7, 1, -0.5, 8, 1, -0.5
*EQUATION
3
1127, 2, 1.0, 7, 2, -0.5, 8, 2, -0.5
*EQUATION
3
1127, 3, 1.0, 7, 3, -0.5, 8, 3, -0.5
*EQUATION
3
1131, 1, 1.0, 6, 1, -0.5, 7, 1, -0.5
*EQUATION
3
1131, 2, 1.0, 6, 2, -0.5, 7, 2, -0.5
*EQUATION
3
1131, 3, 1.0, 6, 3, -0.5, 7, 3, -0.5
*EQUATION
5
1139, 1, 1.0, 8, 1, -0.25, 7, 1, -0.25, 27, 1, -0.25, 28, 1, -0.25
*EQUATION
5
1139, 2, 1.0, 8, 2, -0.25, 7, 2, -0.25, 27, 2, -0.25, 28, 2, -0.25
*EQUATION
5
1139, 3, 1.0, 8, 3, -0.25, 7, 3, -0.25, 27, 3, -0.25, 28, 3, -0.25
*EQUATION
3
1142, 1, 1.0, 27, 1, -0.5, 28, 1, -0.5
*EQUATION
3
1142, 2, 1.0, 27, 2, -0.5, 28, 2, -0.5
*EQUATION
3
1142, 3, 1.0, 27, 3, -0.5, 28, 3, -0.5
*EQUATION
3
1145, 1, 1.0, 7, 1, -0.5, 27, 1, -0.5
*EQUATION
3
1145, 2, 1.0, 7, 2, -0.5, 27, 2, -0.5
*EQUATION
3
1145, 3, 1.0, 7, 3, -0.5, 27, 3, -0.5
*EQUATION
3
1149, 1, 1.0, 6, 1, -0.5, 99, 1, -0.5
*EQUATION
3
1149, 2, 1.0, 6, 2, -0.5, 99, 2, -0.5
*EQUATION
3
1149, 3, 1.0, 6, 3, -0.5, 99, 3, -0.5
*EQUATION
5
1152, 1, 1.0, 6, 1, -0.25, 99, 1, -0.25, 100, 1, -0.25, 7, 1, -0.25
*EQUATION
5
1152, 2, 1.0, 6, 2, -0.25, 99, 2, -0.25, 100, 2, -0.25, 7, 2, -0.25
*EQUATION
5
1152, 3, 1.0, 6, 3, -0.25, 99, 3, -0.25, 100, 3, -0.25, 7, 3, -0.25
*EQUATION
3
1155, 1, 1.0, 7, 1, -0.5, 100, 1, -0.5
*EQUATION
3
1155, 2, 1.0, 7, 2, -0.5, 100, 2, -0.5
*EQUATION
3
1155, 3, 1.0, 7, 3, -0.5, 100, 3, -0.5
*EQUATION
3
1156, 1, 1.0, 97, 1, -0.5, 99, 1, -0.5
*EQUATION
3
1156, 2, 1.0, 97, 2, -0.5, 99, 2, -0.5
*EQUATION
3
1156, 3, 1.0, 97, 3, -0.5, 99, 3, -0.5
*EQUATION
3
1157, 1, 1.0, 97, 1, -0.5, 98, 1, -0.5
*EQUATION
3
1157, 2, 1.0, 97, 2, -0.5, 98, 2, -0.5
*EQUATION
3
1157, 3, 1.0, 97, 3, -0.5, 98, 3, -0.5
*EQUATION
5
1158, 1, 1.0, 97, 1, -0.25, 98, 1, -0.25, 100, 1, -0.25, 99, 1, -0.25
*EQUATION
5
1158, 2, 1.0, 97, 2, -0.25, 98, 2, -0.25, 100, 2, -0.25, 99, 2, -0.25
*EQUATION
5
1158, 3, 1.0, 97, 3, -0.25, 98, 3, -0.25, 100, 3, -0.25, 99, 3, -0.25
*EQUATION
3
1159, 1, 1.0, 99, 1, -0.5, 100, 1, -0.5
*EQUATION
3
1159, 2, 1.0, 99, 2, -0.5, 100, 2, -0.5
*EQUATION
3
1159, 3, 1.0, 99, 3, -0.5, 100, 3, -0.5
*EQUATION
3
1160, 1, 1.0, 98, 1, -0.5, 100, 1, -0.5
*EQUATION
3
1160, 2, 1.0, 98, 2, -0.5, 100, 2, -0.5
*EQUATION
3
1160, 3, 1.0, 98, 3, -0.5, 100, 3, -0.5
*EQUATION
5
1163, 1, 1.0, 7, 1, -0.25, 100, 1, -0.25, 110, 1, -0.25, 27, 1, -0.25
*EQUATION
5
1163, 2, 1.0, 7, 2, -0.25, 100, 2, -0.25, 110, 2, -0.25, 27, 2, -0.25
*EQUATION
5
1163, 3, 1.0, 7, 3, -0.25, 100, 3, -0.25, 110, 3, -0.25, 27, 3, -0.25
*EQUATION
3
1166, 1, 1.0, 27, 1, -0.5, 110, 1, -0.5
*EQUATION
3
1166, 2, 1.0, 27, 2, -0.5, 110, 2, -0.5
*EQUATION
3
1166, 3, 1.0, 27, 3, -0.5, 110, 3, -0.5
*EQUATION
3
1167, 1, 1.0, 98, 1, -0.5, 109, 1, -0.5
*EQUATION
3
1167, 2, 1.0, 98, 2, -0.5, 109, 2, -0.5
*EQUATION
3
1167, 3, 1.0, 98, 3, -0.5, 109, 3, -0.5
*EQUATION
5
1168, 1, 1.0, 98, 1, -0.25, 109, 1, -0.25, 110, 1, -0.25, 100, 1, -0.25
*EQUATION
5
1168, 2, 1.0, 98, 2, -0.25, 109, 2, -0.25, 110, 2, -0.25, 100, 2, -0.25
*EQUATION
5
1168, 3, 1.0, 98, 3, -0.25, 109, 3, -0.25, 110, 3, -0.25, 100, 3, -0.25
*EQUATION
3
1169, 1, 1.0, 100, 1, -0.5, 110, 1, -0.5
*EQUATION
3
1169, 2, 1.0, 100, 2, -0.5, 110, 2, -0.5
*EQUATION
3
1169, 3, 1.0, 100, 3, -0.5, 110, 3, -0.5
*EQUATION
3
1170, 1, 1.0, 109, 1, -0.5, 110, 1, -0.5
*EQUATION
3
1170, 2, 1.0, 109, 2, -0.5, 110, 2, -0.5
*EQUATION
3
1170, 3, 1.0, 109, 3, -0.5, 110, 3, -0.5
*EQUATION
3
1174, 1, 1.0, 387, 1, -0.5, 388, 1, -0.5
*EQUATION
3
1174, 2, 1.0, 387, 2, -0.5, 388, 2, -0.5
*EQUATION
3
1174, 3, 1.0, 387, 3, -0.5, 388, 3, -0.5
*EQUATION
3
1178, 1, 1.0, 387, 1, -0.5, 435, 1, -0.5
*EQUATION
3
1178, 2, 1.0, 387, 2, -0.5, 435, 2, -0.5
*EQUATION
3
1178, 3, 1.0, 387, 3, -0.5, 435, 3, -0.5
*EQUATION
5
1181, 1, 1.0, 387, 1, -0.25, 435, 1, -0.25, 436, 1, -0.25, 388, 1, -0.25
*EQUATION
5
1181, 2, 1.0, 387, 2, -0.25, 435, 2, -0.25, 436, 2, -0.25, 388, 2, -0.25
*EQUATION
5
1181, 3, 1.0, 387, 3, -0.25, 435, 3, -0.25, 436, 3, -0.25, 388, 3, -0.25
*EQUATION
3
1184, 1, 1.0, 388, 1, -0.5, 436, 1, -0.5
*EQUATION
3
1184, 2, 1.0, 388, 2, -0.5, 436, 2, -0.5
*EQUATION
3
1184, 3, 1.0, 388, 3, -0.5, 436, 3, -0.5
*EQUATION
3
1188, 1, 1.0, 435, 1, -0.5, 436, 1, -0.5
*EQUATION
3
1188, 2, 1.0, 435, 2, -0.5, 436, 2, -0.5
*EQUATION
3
1188, 3, 1.0, 435, 3, -0.5, 436, 3, -0.5
*EQUATION
3
1192, 1, 1.0, 388, 1, -0.5, 398, 1, -0.5
*EQUATION
3
1192, 2, 1.0, 388, 2, -0.5, 398, 2, -0.5
*EQUATION
3
1192, 3, 1.0, 388, 3, -0.5, 398, 3, -0.5
*EQUATION
5
1196, 1, 1.0, 388, 1, -0.25, 436, 1, -0.25, 446, 1, -0.25, 398, 1, -0.25
*EQUATION
5
1196, 2, 1.0, 388, 2, -0.25, 436, 2, -0.25, 446, 2, -0.25, 398, 2, -0.25
*EQUATION
5
1196, 3, 1.0, 388, 3, -0.25, 436, 3, -0.25, 446, 3, -0.25, 398, 3, -0.25
*EQUATION
3
1199, 1, 1.0, 398, 1, -0.5, 446, 1, -0.5
*EQUATION
3
1199, 2, 1.0, 398, 2, -0.5, 446, 2, -0.5
*EQUATION
3
1199, 3, 1.0, 398, 3, -0.5, 446, 3, -0.5
*EQUATION
3
1202, 1, 1.0, 436, 1, -0.5, 446, 1, -0.5
*EQUATION
3
1202, 2, 1.0, 436, 2, -0.5, 446, 2, -0.5
*EQUATION
3
1202, 3, 1.0, 436, 3, -0.5, 446, 3, -0.5
*EQUATION
3
1206, 1, 1.0, 435, 1, -0.5, 483, 1, -0.5
*EQUATION
3
1206, 2, 1.0, 435, 2, -0.5, 483, 2, -0.5
*EQUATION
3
1206, 3, 1.0, 435, 3, -0.5, 483, 3, -0.5
*EQUATION
5
1209, 1, 1.0, 435, 1, -0.25, 483, 1, -0.25, 484, 1, -0.25, 436, 1, -0.25
*EQUATION
5
1209, 2, 1.0, 435, 2, -0.25, 483, 2, -0.25, 484, 2, -0.25, 436, 2, -0.25
*EQUATION
5
1209, 3, 1.0, 435, 3, -0.25, 483, 3, -0.25, 484, 3, -0.25, 436, 3, -0.25
*EQUATION
3
1212, 1, 1.0, 436, 1, -0.5, 484, 1, -0.5
*EQUATION
3
1212, 2, 1.0, 436, 2, -0.5, 484, 2, -0.5
*EQUATION
3
1212, 3, 1.0, 436, 3, -0.5, 484, 3, -0.5
*EQUATION
3
1221, 1, 1.0, 533, 1, -0.5, 534, 1, -0.5
*EQUATION
3
1221, 2, 1.0, 533, 2, -0.5, 534, 2, -0.5
*EQUATION
3
1221, 3, 1.0, 533, 3, -0.5, 534, 3, -0.5
*EQUATION
3
1234, 1, 1.0, 534, 1, -0.5, 543, 1, -0.5
*EQUATION
3
1234, 2, 1.0, 534, 2, -0.5, 543, 2, -0.5
*EQUATION
3
1234, 3, 1.0, 534, 3, -0.5, 543, 3, -0.5
*EQUATION
3
1288, 1, 1.0, 681, 1, -0.5, 682, 1, -0.5
*EQUATION
3
1288, 2, 1.0, 681, 2, -0.5, 682, 2, -0.5
*EQUATION
3
1288, 3, 1.0, 681, 3, -0.5, 682, 3, -0.5
*EQUATION
3
1290, 1, 1.0, 683, 1, -0.5, 684, 1, -0.5
*EQUATION
3
1290, 2, 1.0, 683, 2, -0.5, 684, 2, -0.5
*EQUATION
3
1290, 3, 1.0, 683, 3, -0.5, 684, 3, -0.5
*EQUATION
3
1294, 1, 1.0, 683, 1, -0.5, 731, 1, -0.5
*EQUATION
3
1294, 2, 1.0, 683, 2, -0.5, 731, 2, -0.5
*EQUATION
3
1294, 3, 1.0, 683, 3, -0.5, 731, 3, -0.5
*EQUATION
5
1297, 1, 1.0, 683, 1, -0.25, 731, 1, -0.25, 732, 1, -0.25, 684, 1, -0.25
*EQUATION
5
1297, 2, 1.0, 683, 2, -0.25, 731, 2, -0.25, 732, 2, -0.25, 684, 2, -0.25
*EQUATION
5
1297, 3, 1.0, 683, 3, -0.25, 731, 3, -0.25, 732, 3, -0.25, 684, 3, -0.25
*EQUATION
3
1300, 1, 1.0, 684, 1, -0.5, 732, 1, -0.5
*EQUATION
3
1300, 2, 1.0, 684, 2, -0.5, 732, 2, -0.5
*EQUATION
3
1300, 3, 1.0, 684, 3, -0.5, 732, 3, -0.5
*EQUATION
3
1304, 1, 1.0, 731, 1, -0.5, 732, 1, -0.5
*EQUATION
3
1304, 2, 1.0, 731, 2, -0.5, 732, 2, -0.5
*EQUATION
3
1304, 3, 1.0, 731, 3, -0.5, 732, 3, -0.5
*EQUATION
3
1313, 1, 1.0, 682, 1, -0.5, 689, 1, -0.5
*EQUATION
3
1313, 2, 1.0, 682, 2, -0.5, 689, 2, -0.5
*EQUATION
3
1313, 3, 1.0, 682, 3, -0.5, 689, 3, -0.5
*EQUATION
3
1315, 1, 1.0, 684, 1, -0.5, 690, 1, -0.5
*EQUATION
3
1315, 2, 1.0, 684, 2, -0.5, 690, 2, -0.5
*EQUATION
3
1315, 3, 1.0, 684, 3, -0.5, 690, 3, -0.5
*EQUATION
5
1319, 1, 1.0, 684, 1, -0.25, 732, 1, -0.25, 738, 1, -0.25, 690, 1, -0.25
*EQUATION
5
1319, 2, 1.0, 684, 2, -0.25, 732, 2, -0.25, 738, 2, -0.25, 690, 2, -0.25
*EQUATION
5
1319, 3, 1.0, 684, 3, -0.25, 732, 3, -0.25, 738, 3, -0.25, 690, 3, -0.25
*EQUATION
3
1322, 1, 1.0, 690, 1, -0.5, 738, 1, -0.5
*EQUATION
3
1322, 2, 1.0, 690, 2, -0.5, 738, 2, -0.5
*EQUATION
3
1322, 3, 1.0, 690, 3, -0.5, 738, 3, -0.5
*EQUATION
3
1325, 1, 1.0, 732, 1, -0.5, 738, 1, -0.5
*EQUATION
3
1325, 2, 1.0, 732, 2, -0.5, 738, 2, -0.5
*EQUATION
3
1325, 3, 1.0, 732, 3, -0.5, 738, 3, -0.5
*EQUATION
3
1339, 1, 1.0, 731, 1, -0.5, 779, 1, -0.5
*EQUATION
3
1339, 2, 1.0, 731, 2, -0.5, 779, 2, -0.5
*EQUATION
3
1339, 3, 1.0, 731, 3, -0.5, 779, 3, -0.5
*EQUATION
5
1342, 1, 1.0, 731, 1, -0.25, 779, 1, -0.25, 780, 1, -0.25, 732, 1, -0.25
*EQUATION
5
1342, 2, 1.0, 731, 2, -0.25, 779, 2, -0.25, 780, 2, -0.25, 732, 2, -0.25
*EQUATION
5
1342, 3, 1.0, 731, 3, -0.25, 779, 3, -0.25, 780, 3, -0.25, 732, 3, -0.25
*EQUATION
3
1345, 1, 1.0, 732, 1, -0.5, 780, 1, -0.5
*EQUATION
3
1345, 2, 1.0, 732, 2, -0.5, 780, 2, -0.5
*EQUATION
3
1345, 3, 1.0, 732, 3, -0.5, 780, 3, -0.5
*EQUATION
3
1349, 1, 1.0, 779, 1, -0.5, 780, 1, -0.5
*EQUATION
3
1349, 2, 1.0, 779, 2, -0.5, 780, 2, -0.5
*EQUATION
3
1349, 3, 1.0, 779, 3, -0.5, 780, 3, -0.5
*EQUATION
5
1360, 1, 1.0, 732, 1, -0.25, 780, 1, -0.25, 786, 1, -0.25, 738, 1, -0.25
*EQUATION
5
1360, 2, 1.0, 732, 2, -0.25, 780, 2, -0.25, 786, 2, -0.25, 738, 2, -0.25
*EQUATION
5
1360, 3, 1.0, 732, 3, -0.25, 780, 3, -0.25, 786, 3, -0.25, 738, 3, -0.25
*EQUATION
3
1363, 1, 1.0, 738, 1, -0.5, 786, 1, -0.5
*EQUATION
3
1363, 2, 1.0, 738, 2, -0.5, 786, 2, -0.5
*EQUATION
3
1363, 3, 1.0, 738, 3, -0.5, 786, 3, -0.5
*EQUATION
3
1366, 1, 1.0, 780, 1, -0.5, 786, 1, -0.5
*EQUATION
3
1366, 2, 1.0, 780, 2, -0.5, 786, 2, -0.5
*EQUATION
3
1366, 3, 1.0, 780, 3, -0.5, 786, 3, -0.5
*EQUATION
3
1380, 1, 1.0, 779, 1, -0.5, 827, 1, -0.5
*EQUATION
3
1380, 2, 1.0, 779, 2, -0.5, 827, 2, -0.5
*EQUATION
3
1380, 3, 1.0, 779, 3, -0.5, 827, 3, -0.5
*EQUATION
5
1383, 1, 1.0, 779, 1, -0.25, 827, 1, -0.25, 828, 1, -0.25, 780, 1, -0.25
*EQUATION
5
1383, 2, 1.0, 779, 2, -0.25, 827, 2, -0.25, 828, 2, -0.25, 780, 2, -0.25
*EQUATION
5
1383, 3, 1.0, 779, 3, -0.25, 827, 3, -0.25, 828, 3, -0.25, 780, 3, -0.25
*EQUATION
3
1386, 1, 1.0, 780, 1, -0.5, 828, 1, -0.5
*EQUATION
3
1386, 2, 1.0, 780, 2, -0.5, 828, 2, -0.5
*EQUATION
3
1386, 3, 1.0, 780, 3, -0.5, 828, 3, -0.5
*EQUATION
3
1390, 1, 1.0, 827, 1, -0.5, 828, 1, -0.5
*EQUATION
3
1390, 2, 1.0, 827, 2, -0.5, 828, 2, -0.5
*EQUATION
3
1390, 3, 1.0, 827, 3, -0.5, 828, 3, -0.5
*EQUATION
5
1401, 1, 1.0, 780, 1, -0.25, 828, 1, -0.25, 834, 1, -0.25, 786, 1, -0.25
*EQUATION
5
1401, 2, 1.0, 780, 2, -0.25, 828, 2, -0.25, 834, 2, -0.25, 786, 2, -0.25
*EQUATION
5
1401, 3, 1.0, 780, 3, -0.25, 828, 3, -0.25, 834, 3, -0.25, 786, 3, -0.25
*EQUATION
3
1404, 1, 1.0, 786, 1, -0.5, 834, 1, -0.5
*EQUATION
3
1404, 2, 1.0, 786, 2, -0.5, 834, 2, -0.5
*EQUATION
3
1404, 3, 1.0, 786, 3, -0.5, 834, 3, -0.5
*EQUATION
3
1407, 1, 1.0, 828, 1, -0.5, 834, 1, -0.5
*EQUATION
3
1407, 2, 1.0, 828, 2, -0.5, 834, 2, -0.5
*EQUATION
3
1407, 3, 1.0, 828, 3, -0.5, 834, 3, -0.5
*EQUATION
3
1421, 1, 1.0, 827, 1, -0.5, 875, 1, -0.5
*EQUATION
3
1421, 2, 1.0, 827, 2, -0.5, 875, 2, -0.5
*EQUATION
3
1421, 3, 1.0, 827, 3, -0.5, 875, 3, -0.5
*EQUATION
5
1424, 1, 1.0, 827, 1, -0.25, 875, 1, -0.25, 876, 1, -0.25, 828, 1, -0.25
*EQUATION
5
1424, 2, 1.0, 827, 2, -0.25, 875, 2, -0.25, 876, 2, -0.25, 828, 2, -0.25
*EQUATION
5
1424, 3, 1.0, 827, 3, -0.25, 875, 3, -0.25, 876, 3, -0.25, 828, 3, -0.25
*EQUATION
3
1427, 1, 1.0, 828, 1, -0.5, 876, 1, -0.5
*EQUATION
3
1427, 2, 1.0, 828, 2, -0.5, 876, 2, -0.5
*EQUATION
3
1427, 3, 1.0, 828, 3, -0.5, 876, 3, -0.5
*EQUATION
3
1431, 1, 1.0, 875, 1, -0.5, 876, 1, -0.5
*EQUATION
3
1431, 2, 1.0, 875, 2, -0.5, 876, 2, -0.5
*EQUATION
3
1431, 3, 1.0, 875, 3, -0.5, 876, 3, -0.5
*EQUATION
5
1442, 1, 1.0, 828, 1, -0.25, 876, 1, -0.25, 882, 1, -0.25, 834, 1, -0.25
*EQUATION
5
1442, 2, 1.0, 828, 2, -0.25, 876, 2, -0.25, 882, 2, -0.25, 834, 2, -0.25
*EQUATION
5
1442, 3, 1.0, 828, 3, -0.25, 876, 3, -0.25, 882, 3, -0.25, 834, 3, -0.25
*EQUATION
3
1445, 1, 1.0, 834, 1, -0.5, 882, 1, -0.5
*EQUATION
3
1445, 2, 1.0, 834, 2, -0.5, 882, 2, -0.5
*EQUATION
3
1445, 3, 1.0, 834, 3, -0.5, 882, 3, -0.5
*EQUATION
3
1448, 1, 1.0, 876, 1, -0.5, 882, 1, -0.5
*EQUATION
3
1448, 2, 1.0, 876, 2, -0.5, 882, 2, -0.5
*EQUATION
3
1448, 3, 1.0, 876, 3, -0.5, 882, 3, -0.5
*EQUATION
3
1450, 1, 1.0, 337, 1, -0.5, 339, 1, -0.5
*EQUATION
3
1450, 2, 1.0, 337, 2, -0.5, 339, 2, -0.5
*EQUATION
3
1450, 3, 1.0, 337, 3, -0.5, 339, 3, -0.5
*EQUATION
3
1451, 1, 1.0, 337, 1, -0.5, 338, 1, -0.5
*EQUATION
3
1451, 2, 1.0, 337, 2, -0.5, 338, 2, -0.5
*EQUATION
3
1451, 3, 1.0, 337, 3, -0.5, 338, 3, -0.5
*EQUATION
5
1452, 1, 1.0, 337, 1, -0.25, 338, 1, -0.25, 340, 1, -0.25, 339, 1, -0.25
*EQUATION
5
1452, 2, 1.0, 337, 2, -0.25, 338, 2, -0.25, 340, 2, -0.25, 339, 2, -0.25
*EQUATION
5
1452, 3, 1.0, 337, 3, -0.25, 338, 3, -0.25, 340, 3, -0.25, 339, 3, -0.25
*EQUATION
3
1453, 1, 1.0, 339, 1, -0.5, 340, 1, -0.5
*EQUATION
3
1453, 2, 1.0, 339, 2, -0.5, 340, 2, -0.5
*EQUATION
3
1453, 3, 1.0, 339, 3, -0.5, 340, 3, -0.5
*EQUATION
3
1454, 1, 1.0, 338, 1, -0.5, 340, 1, -0.5
*EQUATION
3
1454, 2, 1.0, 338, 2, -0.5, 340, 2, -0.5
*EQUATION
3
1454, 3, 1.0, 338, 3, -0.5, 340, 3, -0.5
*EQUATION
3
1457, 1, 1.0, 339, 1, -0.5, 387, 1, -0.5
*EQUATION
3
1457, 2, 1.0, 339, 2, -0.5, 387, 2, -0.5
*EQUATION
3
1457, 3, 1.0, 339, 3, -0.5, 387, 3, -0.5
*EQUATION
5
1460, 1, 1.0, 339, 1, -0.25, 387, 1, -0.25, 388, 1, -0.25, 340, 1, -0.25
*EQUATION
5
1460, 2, 1.0, 339, 2, -0.25, 387, 2, -0.25, 388, 2, -0.25, 340, 2, -0.25
*EQUATION
5
1460, 3, 1.0, 339, 3, -0.25, 387, 3, -0.25, 388, 3, -0.25, 340, 3, -0.25
*EQUATION
3
1463, 1, 1.0, 340, 1, -0.5, 388, 1, -0.5
*EQUATION
3
1463, 2, 1.0, 340, 2, -0.5, 388, 2, -0.5
*EQUATION
3
1463, 3, 1.0, 340, 3, -0.5, 388, 3, -0.5
*EQUATION
3
1464, 1, 1.0, 338, 1, -0.5, 349, 1, -0.5
*EQUATION
3
1464, 2, 1.0, 338, 2, -0.5, 349, 2, -0.5
*EQUATION
3
1464, 3, 1.0, 338, 3, -0.5, 349, 3, -0.5
*EQUATION
5
1465, 1, 1.0, 338, 1, -0.25, 349, 1, -0.25, 350, 1, -0.25, 340, 1, -0.25
*EQUATION
5
1465, 2, 1.0, 338, 2, -0.25, 349, 2, -0.25, 350, 2, -0.25, 340, 2, -0.25
*EQUATION
5
1465, 3, 1.0, 338, 3, -0.25, 349, 3, -0.25, 350, 3, -0.25, 340, 3, -0.25
*EQUATION
3
1466, 1, 1.0, 340, 1, -0.5, 350, 1, -0.5
*EQUATION
3
1466, 2, 1.0, 340, 2, -0.5, 350, 2, -0.5
*EQUATION
3
1466, 3, 1.0, 340, 3, -0.5, 350, 3, -0.5
*EQUATION
3
1467, 1, 1.0, 349, 1, -0.5, 350, 1, -0.5
*EQUATION
3
1467, 2, 1.0, 349, 2, -0.5, 350, 2, -0.5
*EQUATION
3
1467, 3, 1.0, 349, 3, -0.5, 350, 3, -0.5
*EQUATION
5
1470, 1, 1.0, 340, 1, -0.25, 388, 1, -0.25, 398, 1, -0.25, 350, 1, -0.25
*EQUATION
5
1470, 2, 1.0, 340, 2, -0.25, 388, 2, -0.25, 398, 2, -0.25, 350, 2, -0.25
*EQUATION
5
1470, 3, 1.0, 340, 3, -0.25, 388, 3, -0.25, 398, 3, -0.25, 350, 3, -0.25
*EQUATION
3
1473, 1, 1.0, 350, 1, -0.5, 398, 1, -0.5
*EQUATION
3
1473, 2, 1.0, 350, 2, -0.5, 398, 2, -0.5
*EQUATION
3
1473, 3, 1.0, 350, 3, -0.5, 398, 3, -0.5
*EQUATION
3
1474, 1, 1.0, 436, 1, -0.5, 438, 1, -0.5
*EQUATION
3
1474, 2, 1.0, 436, 2, -0.5, 438, 2, -0.5
*EQUATION
3
1474, 3, 1.0, 436, 3, -0.5, 438, 3, -0.5
*EQUATION
5
1475, 1, 1.0, 436, 1, -0.25, 446, 1, -0.25, 447, 1, -0.25, 438, 1, -0.25
*EQUATION
5
1475, 2, 1.0, 436, 2, -0.25, 446, 2, -0.25, 447, 2, -0.25, 438, 2, -0.25
*EQUATION
5
1475, 3, 1.0, 436, 3, -0.25, 446, 3, -0.25, 447, 3, -0.25, 438, 3, -0.25
*EQUATION
3
1476, 1, 1.0, 438, 1, -0.5, 447, 1, -0.5
*EQUATION
3
1476, 2, 1.0, 438, 2, -0.5, 447, 2, -0.5
*EQUATION
3
1476, 3, 1.0, 438, 3, -0.5, 447, 3, -0.5
*EQUATION
3
1477, 1, 1.0, 446, 1, -0.5, 447, 1, -0.5
*EQUATION
3
1477, 2, 1.0, 446, 2, -0.5, 447, 2, -0.5
*EQUATION
3
1477, 3, 1.0, 446, 3, -0.5, 447, 3, -0.5
*EQUATION
5
1478, 1, 1.0, 436, 1, -0.25, 484, 1, -0.25, 486, 1, -0.25, 438, 1, -0.25
*EQUATION
5
1478, 2, 1.0, 436, 2, -0.25, 484, 2, -0.25, 486, 2, -0.25, 438, 2, -0.25
*EQUATION
5
1478, 3, 1.0, 436, 3, -0.25, 484, 3, -0.25, 486, 3, -0.25, 438, 3, -0.25
*EQUATION
3
1479, 1, 1.0, 438, 1, -0.5, 486, 1, -0.5
*EQUATION
3
1479, 2, 1.0, 438, 2, -0.5, 486, 2, -0.5
*EQUATION
3
1479, 3, 1.0, 438, 3, -0.5, 486, 3, -0.5
*EQUATION
5
1481, 1, 1.0, 438, 1, -0.25, 486, 1, -0.25, 495, 1, -0.25, 447, 1, -0.25
*EQUATION
5
1481, 2, 1.0, 438, 2, -0.25, 486, 2, -0.25, 495, 2, -0.25, 447, 2, -0.25
*EQUATION
5
1481, 3, 1.0, 438, 3, -0.25, 486, 3, -0.25, 495, 3, -0.25, 447, 3, -0.25
*EQUATION
3
1483, 1, 1.0, 447, 1, -0.5, 495, 1, -0.5
*EQUATION
3
1483, 2, 1.0, 447, 2, -0.5, 495, 2, -0.5
*EQUATION
3
1483, 3, 1.0, 447, 3, -0.5, 495, 3, -0.5
*EQUATION
3
1484, 1, 1.0, 484, 1, -0.5, 486, 1, -0.5
*EQUATION
3
1484, 2, 1.0, 484, 2, -0.5, 486, 2, -0.5
*EQUATION
3
1484, 3, 1.0, 484, 3, -0.5, 486, 3, -0.5
*EQUATION
3
1486, 1, 1.0, 486, 1, -0.5, 495, 1, -0.5
*EQUATION
3
1486, 2, 1.0, 486, 2, -0.5, 495, 2, -0.5
*EQUATION
3
1486, 3, 1.0, 486, 3, -0.5, 495, 3, -0.5
*EQUATION
3
1488, 1, 1.0, 483, 1, -0.5, 485, 1, -0.5
*EQUATION
3
1488, 2, 1.0, 483, 2, -0.5, 485, 2, -0.5
*EQUATION
3
1488, 3, 1.0, 483, 3, -0.5, 485, 3, -0.5
*EQUATION
5
1489, 1, 1.0, 483, 1, -0.25, 484, 1, -0.25, 486, 1, -0.25, 485, 1, -0.25
*EQUATION
5
1489, 2, 1.0, 483, 2, -0.25, 484, 2, -0.25, 486, 2, -0.25, 485, 2, -0.25
*EQUATION
5
1489, 3, 1.0, 483, 3, -0.25, 484, 3, -0.25, 486, 3, -0.25, 485, 3, -0.25
*EQUATION
3
1490, 1, 1.0, 485, 1, -0.5, 486, 1, -0.5
*EQUATION
3
1490, 2, 1.0, 485, 2, -0.5, 486, 2, -0.5
*EQUATION
3
1490, 3, 1.0, 485, 3, -0.5, 486, 3, -0.5
*EQUATION
3
1492, 1, 1.0, 485, 1, -0.5, 533, 1, -0.5
*EQUATION
3
1492, 2, 1.0, 485, 2, -0.5, 533, 2, -0.5
*EQUATION
3
1492, 3, 1.0, 485, 3, -0.5, 533, 3, -0.5
*EQUATION
5
1494, 1, 1.0, 485, 1, -0.25, 533, 1, -0.25, 534, 1, -0.25, 486, 1, -0.25
*EQUATION
5
1494, 2, 1.0, 485, 2, -0.25, 533, 2, -0.25, 534, 2, -0.25, 486, 2, -0.25
*EQUATION
5
1494, 3, 1.0, 485, 3, -0.25, 533, 3, -0.25, 534, 3, -0.25, 486, 3, -0.25
*EQUATION
3
1496, 1, 1.0, 486, 1, -0.5, 534, 1, -0.5
*EQUATION
3
1496, 2, 1.0, 486, 2, -0.5, 534, 2, -0.5
*EQUATION
3
1496, 3, 1.0, 486, 3, -0.5, 534, 3, -0.5
*EQUATION
5
1498, 1, 1.0, 486, 1, -0.25, 534, 1, -0.25, 543, 1, -0.25, 495, 1, -0.25
*EQUATION
5
1498, 2, 1.0, 486, 2, -0.25, 534, 2, -0.25, 543, 2, -0.25, 495, 2, -0.25
*EQUATION
5
1498, 3, 1.0, 486, 3, -0.25, 534, 3, -0.25, 543, 3, -0.25, 495, 3, -0.25
*EQUATION
3
1500, 1, 1.0, 495, 1, -0.5, 543, 1, -0.5
*EQUATION
3
1500, 2, 1.0, 495, 2, -0.5, 543, 2, -0.5
*EQUATION
3
1500, 3, 1.0, 495, 3, -0.5, 543, 3, -0.5
*EQUATION
3
1501, 1, 1.0, 533, 1, -0.5, 535, 1, -0.5
*EQUATION
3
1501, 2, 1.0, 533, 2, -0.5, 535, 2, -0.5
*EQUATION
3
1501, 3, 1.0, 533, 3, -0.5, 535, 3, -0.5
*EQUATION
5
1502, 1, 1.0, 533, 1, -0.25, 534, 1, -0.25, 536, 1, -0.25, 535, 1, -0.25
*EQUATION
5
1502, 2, 1.0, 533, 2, -0.25, 534, 2, -0.25, 536, 2, -0.25, 535, 2, -0.25
*EQUATION
5
1502, 3, 1.0, 533, 3, -0.25, 534, 3, -0.25, 536, 3, -0.25, 535, 3, -0.25
*EQUATION
3
1503, 1, 1.0, 535, 1, -0.5, 536, 1, -0.5
*EQUATION
3
1503, 2, 1.0, 535, 2, -0.5, 536, 2, -0.5
*EQUATION
3
1503, 3, 1.0, 535, 3, -0.5, 536, 3, -0.5
*EQUATION
3
1504, 1, 1.0, 534, 1, -0.5, 536, 1, -0.5
*EQUATION
3
1504, 2, 1.0, 534, 2, -0.5, 536, 2, -0.5
*EQUATION
3
1504, 3, 1.0, 534, 3, -0.5, 536, 3, -0.5
*EQUATION
3
1506, 1, 1.0, 535, 1, -0.5, 583, 1, -0.5
*EQUATION
3
1506, 2, 1.0, 535, 2, -0.5, 583, 2, -0.5
*EQUATION
3
1506, 3, 1.0, 535, 3, -0.5, 583, 3, -0.5
*EQUATION
5
1508, 1, 1.0, 535, 1, -0.25, 583, 1, -0.25, 584, 1, -0.25, 536, 1, -0.25
*EQUATION
5
1508, 2, 1.0, 535, 2, -0.25, 583, 2, -0.25, 584, 2, -0.25, 536, 2, -0.25
*EQUATION
5
1508, 3, 1.0, 535, 3, -0.25, 583, 3, -0.25, 584, 3, -0.25, 536, 3, -0.25
*EQUATION
3
1510, 1, 1.0, 536, 1, -0.5, 584, 1, -0.5
*EQUATION
3
1510, 2, 1.0, 536, 2, -0.5, 584, 2, -0.5
*EQUATION
3
1510, 3, 1.0, 536, 3, -0.5, 584, 3, -0.5
*EQUATION
3
1513, 1, 1.0, 583, 1, -0.5, 584, 1, -0.5
*EQUATION
3
1513, 2, 1.0, 583, 2, -0.5, 584, 2, -0.5
*EQUATION
3
1513, 3, 1.0, 583, 3, -0.5, 584, 3, -0.5
*EQUATION
5
1515, 1, 1.0, 534, 1, -0.25, 543, 1, -0.25, 544, 1, -0.25, 536, 1, -0.25
*EQUATION
5
1515, 2, 1.0, 534, 2, -0.25, 543, 2, -0.25, 544, 2, -0.25, 536, 2, -0.25
*EQUATION
5
1515, 3, 1.0, 534, 3, -0.25, 543, 3, -0.25, 544, 3, -0.25, 536, 3, -0.25
*EQUATION
3
1516, 1, 1.0, 536, 1, -0.5, 544, 1, -0.5
*EQUATION
3
1516, 2, 1.0, 536, 2, -0.5, 544, 2, -0.5
*EQUATION
3
1516, 3, 1.0, 536, 3, -0.5, 544, 3, -0.5
*EQUATION
3
1517, 1, 1.0, 543, 1, -0.5, 544, 1, -0.5
*EQUATION
3
1517, 2, 1.0, 543, 2, -0.5, 544, 2, -0.5
*EQUATION
3
1517, 3, 1.0, 543, 3, -0.5, 544, 3, -0.5
*EQUATION
5
1519, 1, 1.0, 536, 1, -0.25, 584, 1, -0.25, 592, 1, -0.25, 544, 1, -0.25
*EQUATION
5
1519, 2, 1.0, 536, 2, -0.25, 584, 2, -0.25, 592, 2, -0.25, 544, 2, -0.25
*EQUATION
5
1519, 3, 1.0, 536, 3, -0.25, 584, 3, -0.25, 592, 3, -0.25, 544, 3, -0.25
*EQUATION
3
1521, 1, 1.0, 544, 1, -0.5, 592, 1, -0.5
*EQUATION
3
1521, 2, 1.0, 544, 2, -0.5, 592, 2, -0.5
*EQUATION
3
1521, 3, 1.0, 544, 3, -0.5, 592, 3, -0.5
*EQUATION
3
1523, 1, 1.0, 584, 1, -0.5, 592, 1, -0.5
*EQUATION
3
1523, 2, 1.0, 584, 2, -0.5, 592, 2, -0.5
*EQUATION
3
1523, 3, 1.0, 584, 3, -0.5, 592, 3, -0.5
*EQUATION
3
1526, 1, 1.0, 583, 1, -0.5, 631, 1, -0.5
*EQUATION
3
1526, 2, 1.0, 583, 2, -0.5, 631, 2, -0.5
*EQUATION
3
1526, 3, 1.0, 583, 3, -0.5, 631, 3, -0.5
*EQUATION
5
1528, 1, 1.0, 583, 1, -0.25, 631, 1, -0.25, 632, 1, -0.25, 584, 1, -0.25
*EQUATION
5
1528, 2, 1.0, 583, 2, -0.25, 631, 2, -0.25, 632, 2, -0.25, 584, 2, -0.25
*EQUATION
5
1528, 3, 1.0, 583, 3, -0.25, 631, 3, -0.25, 632, 3, -0.25, 584, 3, -0.25
*EQUATION
3
1530, 1, 1.0, 584, 1, -0.5, 632, 1, -0.5
*EQUATION
3
1530, 2, 1.0, 584, 2, -0.5, 632, 2, -0.5
*EQUATION
3
1530, 3, 1.0, 584, 3, -0.5, 632, 3, -0.5
*EQUATION
3
1533, 1, 1.0, 631, 1, -0.5, 632, 1, -0.5
*EQUATION
3
1533, 2, 1.0, 631, 2, -0.5, 632, 2, -0.5
*EQUATION
3
1533, 3, 1.0, 631, 3, -0.5, 632, 3, -0.5
*EQUATION
5
1536, 1, 1.0, 584, 1, -0.25, 632, 1, -0.25, 640, 1, -0.25, 592, 1, -0.25
*EQUATION
5
1536, 2, 1.0, 584, 2, -0.25, 632, 2, -0.25, 640, 2, -0.25, 592, 2, -0.25
*EQUATION
5
1536, 3, 1.0, 584, 3, -0.25, 632, 3, -0.25, 640, 3, -0.25, 592, 3, -0.25
*EQUATION
3
1538, 1, 1.0, 592, 1, -0.5, 640, 1, -0.5
*EQUATION
3
1538, 2, 1.0, 592, 2, -0.5, 640, 2, -0.5
*EQUATION
3
1538, 3, 1.0, 592, 3, -0.5, 640, 3, -0.5
*EQUATION
3
1540, 1, 1.0, 632, 1, -0.5, 640, 1, -0.5
*EQUATION
3
1540, 2, 1.0, 632, 2, -0.5, 640, 2, -0.5
*EQUATION
3
1540, 3, 1.0, 632, 3, -0.5, 640, 3, -0.5
*EQUATION
3
1543, 1, 1.0, 631, 1, -0.5, 679, 1, -0.5
*EQUATION
3
1543, 2, 1.0, 631, 2, -0.5, 679, 2, -0.5
*EQUATION
3
1543, 3, 1.0, 631, 3, -0.5, 679, 3, -0.5
*EQUATION
5
1545, 1, 1.0, 631, 1, -0.25, 679, 1, -0.25, 680, 1, -0.25, 632, 1, -0.25
*EQUATION
5
1545, 2, 1.0, 631, 2, -0.25, 679, 2, -0.25, 680, 2, -0.25, 632, 2, -0.25
*EQUATION
5
1545, 3, 1.0, 631, 3, -0.25, 679, 3, -0.25, 680, 3, -0.25, 632, 3, -0.25
*EQUATION
3
1547, 1, 1.0, 632, 1, -0.5, 680, 1, -0.5
*EQUATION
3
1547, 2, 1.0, 632, 2, -0.5, 680, 2, -0.5
*EQUATION
3
1547, 3, 1.0, 632, 3, -0.5, 680, 3, -0.5
*EQUATION
3
1550, 1, 1.0, 679, 1, -0.5, 680, 1, -0.5
*EQUATION
3
1550, 2, 1.0, 679, 2, -0.5, 680, 2, -0.5
*EQUATION
3
1550, 3, 1.0, 679, 3, -0.5, 680, 3, -0.5
*EQUATION
3
1552, 1, 1.0, 633, 1, -0.5, 635, 1, -0.5
*EQUATION
3
1552, 2, 1.0, 633, 2, -0.5, 635, 2, -0.5
*EQUATION
3
1552, 3, 1.0, 633, 3, -0.5, 635, 3, -0.5
*EQUATION
3
1553, 1, 1.0, 633, 1, -0.5, 634, 1, -0.5
*EQUATION
3
1553, 2, 1.0, 633, 2, -0.5, 634, 2, -0.5
*EQUATION
3
1553, 3, 1.0, 633, 3, -0.5, 634, 3, -0.5
*EQUATION
5
1554, 1, 1.0, 633, 1, -0.25, 634, 1, -0.25, 636, 1, -0.25, 635, 1, -0.25
*EQUATION
5
1554, 2, 1.0, 633, 2, -0.25, 634, 2, -0.25, 636, 2, -0.25, 635, 2, -0.25
*EQUATION
5
1554, 3, 1.0, 633, 3, -0.25, 634, 3, -0.25, 636, 3, -0.25, 635, 3, -0.25
*EQUATION
3
1555, 1, 1.0, 635, 1, -0.5, 636, 1, -0.5
*EQUATION
3
1555, 2, 1.0, 635, 2, -0.5, 636, 2, -0.5
*EQUATION
3
1555, 3, 1.0, 635, 3, -0.5, 636, 3, -0.5
*EQUATION
3
1556, 1, 1.0, 634, 1, -0.5, 636, 1, -0.5
*EQUATION
3
1556, 2, 1.0, 634, 2, -0.5, 636, 2, -0.5
*EQUATION
3
1556, 3, 1.0, 634, 3, -0.5, 636, 3, -0.5
*EQUATION
3
1557, 1, 1.0, 633, 1, -0.5, 681, 1, -0.5
*EQUATION
3
1557, 2, 1.0, 633, 2, -0.5, 681, 2, -0.5
*EQUATION
3
1557, 3, 1.0, 633, 3, -0.5, 681, 3, -0.5
*EQUATION
3
1559, 1, 1.0, 635, 1, -0.5, 683, 1, -0.5
*EQUATION
3
1559, 2, 1.0, 635, 2, -0.5, 683, 2, -0.5
*EQUATION
3
1559, 3, 1.0, 635, 3, -0.5, 683, 3, -0.5
*EQUATION
5
1560, 1, 1.0, 633, 1, -0.25, 681, 1, -0.25, 682, 1, -0.25, 634, 1, -0.25
*EQUATION
5
1560, 2, 1.0, 633, 2, -0.25, 681, 2, -0.25, 682, 2, -0.25, 634, 2, -0.25
*EQUATION
5
1560, 3, 1.0, 633, 3, -0.25, 681, 3, -0.25, 682, 3, -0.25, 634, 3, -0.25
*EQUATION
5
1562, 1, 1.0, 635, 1, -0.25, 683, 1, -0.25, 684, 1, -0.25, 636, 1, -0.25
*EQUATION
5
1562, 2, 1.0, 635, 2, -0.25, 683, 2, -0.25, 684, 2, -0.25, 636, 2, -0.25
*EQUATION
5
1562, 3, 1.0, 635, 3, -0.25, 683, 3, -0.25, 684, 3, -0.25, 636, 3, -0.25
*EQUATION
3
1563, 1, 1.0, 634, 1, -0.5, 682, 1, -0.5
*EQUATION
3
1563, 2, 1.0, 634, 2, -0.5, 682, 2, -0.5
*EQUATION
3
1563, 3, 1.0, 634, 3, -0.5, 682, 3, -0.5
*EQUATION
3
1565, 1, 1.0, 636, 1, -0.5, 684, 1, -0.5
*EQUATION
3
1565, 2, 1.0, 636, 2, -0.5, 684, 2, -0.5
*EQUATION
3
1565, 3, 1.0, 636, 3, -0.5, 684, 3, -0.5
*EQUATION
5
1567, 1, 1.0, 632, 1, -0.25, 680, 1, -0.25, 688, 1, -0.25, 640, 1, -0.25
*EQUATION
5
1567, 2, 1.0, 632, 2, -0.25, 680, 2, -0.25, 688, 2, -0.25, 640, 2, -0.25
*EQUATION
5
1567, 3, 1.0, 632, 3, -0.25, 680, 3, -0.25, 688, 3, -0.25, 640, 3, -0.25
*EQUATION
3
1569, 1, 1.0, 640, 1, -0.5, 688, 1, -0.5
*EQUATION
3
1569, 2, 1.0, 640, 2, -0.5, 688, 2, -0.5
*EQUATION
3
1569, 3, 1.0, 640, 3, -0.5, 688, 3, -0.5
*EQUATION
3
1571, 1, 1.0, 680, 1, -0.5, 688, 1, -0.5
*EQUATION
3
1571, 2, 1.0, 680, 2, -0.5, 688, 2, -0.5
*EQUATION
3
1571, 3, 1.0, 680, 3, -0.5, 688, 3, -0.5
*EQUATION
3
1573, 1, 1.0, 634, 1, -0.5, 641, 1, -0.5
*EQUATION
3
1573, 2, 1.0, 634, 2, -0.5, 641, 2, -0.5
*EQUATION
3
1573, 3, 1.0, 634, 3, -0.5, 641, 3, -0.5
*EQUATION
5
1574, 1, 1.0, 634, 1, -0.25, 641, 1, -0.25, 642, 1, -0.25, 636, 1, -0.25
*EQUATION
5
1574, 2, 1.0, 634, 2, -0.25, 641, 2, -0.25, 642, 2, -0.25, 636, 2, -0.25
*EQUATION
5
1574, 3, 1.0, 634, 3, -0.25, 641, 3, -0.25, 642, 3, -0.25, 636, 3, -0.25
*EQUATION
3
1575, 1, 1.0, 636, 1, -0.5, 642, 1, -0.5
*EQUATION
3
1575, 2, 1.0, 636, 2, -0.5, 642, 2, -0.5
*EQUATION
3
1575, 3, 1.0, 636, 3, -0.5, 642, 3, -0.5
*EQUATION
3
1576, 1, 1.0, 641, 1, -0.5, 642, 1, -0.5
*EQUATION
3
1576, 2, 1.0, 641, 2, -0.5, 642, 2, -0.5
*EQUATION
3
1576, 3, 1.0, 641, 3, -0.5, 642, 3, -0.5
*EQUATION
5
1577, 1, 1.0, 634, 1, -0.25, 682, 1, -0.25, 689, 1, -0.25, 641, 1, -0.25
*EQUATION
5
1577, 2, 1.0, 634, 2, -0.25, 682, 2, -0.25, 689, 2, -0.25, 641, 2, -0.25
*EQUATION
5
1577, 3, 1.0, 634, 3, -0.25, 682, 3, -0.25, 689, 3, -0.25, 641, 3, -0.25
*EQUATION
5
1579, 1, 1.0, 636, 1, -0.25, 684, 1, -0.25, 690, 1, -0.25, 642, 1, -0.25
*EQUATION
5
1579, 2, 1.0, 636, 2, -0.25, 684, 2, -0.25, 690, 2, -0.25, 642, 2, -0.25
*EQUATION
5
1579, 3, 1.0, 636, 3, -0.25, 684, 3, -0.25, 690, 3, -0.25, 642, 3, -0.25
*EQUATION
3
1580, 1, 1.0, 641, 1, -0.5, 689, 1, -0.5
*EQUATION
3
1580, 2, 1.0, 641, 2, -0.5, 689, 2, -0.5
*EQUATION
3
1580, 3, 1.0, 641, 3, -0.5, 689, 3, -0.5
*EQUATION
3
1582, 1, 1.0, 642, 1, -0.5, 690, 1, -0.5
*EQUATION
3
1582, 2, 1.0, 642, 2, -0.5, 690, 2, -0.5
*EQUATION
3
1582, 3, 1.0, 642, 3, -0.5, 690, 3, -0.5
*EQUATION
3
1593, 1, 1.0, 679, 1, -0.5, 681, 1, -0.5
*EQUATION
3
1593, 2, 1.0, 679, 2, -0.5, 681, 2, -0.5
*EQUATION
3
1593, 3, 1.0, 679, 3, -0.5, 681, 3, -0.5
*EQUATION
5
1594, 1, 1.0, 679, 1, -0.25, 680, 1, -0.25, 682, 1, -0.25, 681, 1, -0.25
*EQUATION
5
1594, 2, 1.0, 679, 2, -0.25, 680, 2, -0.25, 682, 2, -0.25, 681, 2, -0.25
*EQUATION
5
1594, 3, 1.0, 679, 3, -0.25, 680, 3, -0.25, 682, 3, -0.25, 681, 3, -0.25
*EQUATION
3
1595, 1, 1.0, 680, 1, -0.5, 682, 1, -0.5
*EQUATION
3
1595, 2, 1.0, 680, 2, -0.5, 682, 2, -0.5
*EQUATION
3
1595, 3, 1.0, 680, 3, -0.5, 682, 3, -0.5
*EQUATION
5
1609, 1, 1.0, 680, 1, -0.25, 688, 1, -0.25, 689, 1, -0.25, 682, 1, -0.25
*EQUATION
5
1609, 2, 1.0, 680, 2, -0.25, 688, 2, -0.25, 689, 2, -0.25, 682, 2, -0.25
*EQUATION
5
1609, 3, 1.0, 680, 3, -0.25, 688, 3, -0.25, 689, 3, -0.25, 682, 3, -0.25
*EQUATION
3
1610, 1, 1.0, 688, 1, -0.5, 689, 1, -0.5
*EQUATION
3
1610, 2, 1.0, 688, 2, -0.5, 689, 2, -0.5
*EQUATION
3
1610, 3, 1.0, 688, 3, -0.5, 689, 3, -0.5
*BOUNDARY
CLAMP, 1, 3, 0.0
*STEP
*STATIC
*CLOAD
887, 3, -454.545454545
888, 3, -454.545454545
891, 3, -454.545454545
894, 3, -454.545454545
896, 3, -454.545454545
898, 3, -454.545454545
900, 3, -454.545454545
903, 3, -454.545454545
906, 3, -454.545454545
909, 3, -454.545454545
912, 3, -454.545454545
*NODE FILE
U
*EL FILE
S, ENER
*NODE PRINT, NSET=TIP_TOP
U
*NODE PRINT, NSET=CLAMP
RF
*EL PRINT, ELSET=EALL
ELSE
*ENERGY PRINT
*END STEP
