*HEADING
R8 midspan h-branch ccx vs in-process
local Dirichlet problem; displacements on the cut from the global FE solution
*NODE, NSET=NALL
1, 777.777777778, -10, 56
2, 777.777777778, -10, 70
3, 777.777777778, -10, 84
4, 777.777777778, -5, 56
5, 777.777777778, -5, 70
6, 777.777777778, -5, 84
7, 777.777777778, 0, 56
8, 777.777777778, 0, 70
9, 777.777777778, 0, 84
10, 833.333333333, -10, 56
11, 833.333333333, -10, 70
12, 833.333333333, -10, 84
13, 833.333333333, -5, 56
14, 833.333333333, -5, 70
15, 833.333333333, -5, 84
16, 833.333333333, 0, 56
17, 833.333333333, 0, 70
18, 833.333333333, 0, 84
19, 888.888888889, -10, 56
20, 888.888888889, -10, 70
** ... 97 like lines cut
*ELEMENT, TYPE=C3D8, ELSET=EALL
1, 1, 10, 13, 4, 2, 11, 14, 5
2, 2, 11, 14, 5, 3, 12, 15, 6
3, 4, 13, 16, 7, 5, 14, 17, 8
4, 5, 14, 17, 8, 6, 15, 18, 9
5, 10, 19, 22, 13, 11, 20, 23, 14
6, 11, 20, 23, 14, 12, 21, 24, 15
7, 13, 22, 25, 16, 14, 23, 26, 17
8, 14, 23, 26, 17, 15, 24, 27, 18
9, 28, 34, 37, 30, 29, 35, 38, 31
10, 29, 35, 38, 31, 19, 36, 39, 22
11, 30, 37, 40, 32, 31, 38, 41, 33
12, 31, 38, 41, 33, 22, 39, 42, 25
13, 34, 43, 46, 37, 35, 44, 47, 38
14, 35, 44, 47, 38, 36, 45, 48, 39
15, 37, 46, 49, 40, 38, 47, 50, 41
16, 38, 47, 50, 41, 39, 48, 51, 42
17, 19, 36, 39, 22, 20, 52, 54, 23
18, 20, 52, 54, 23, 21, 53, 55, 24
19, 22, 39, 42, 25, 23, 54, 56, 26
20, 23, 54, 56, 26, 24, 55, 57, 27
** ... 28 like lines cut
*NSET, NSET=BDRY
1, 2, 3, 4, 5, 6, 7, 8, 9, 10, 11, 12, 13, 15, 16, 17
18, 19, 20, 21, 22, 24, 25, 26, 27, 28, 29, 30, 31, 32, 33, 34
35, 36, 37, 40, 41, 42, 43, 44, 45, 46, 47, 48, 49, 50, 51, 52
53, 57, 58, 59, 61, 62, 63, 64, 65, 66, 67, 68, 69, 70, 71, 73
74, 75, 76, 77, 78, 79, 80, 81, 82, 83, 84, 85, 86, 87, 88, 90
91, 92, 93, 94, 95, 96, 97, 98, 99, 100, 101, 102, 103, 105, 106, 107
108, 109, 110, 111, 112, 113, 114, 115, 116, 117
*NSET, NSET=FREE
14, 23, 38, 39, 54, 55, 56, 60, 72, 89, 104
*MATERIAL, NAME=STEEL
*ELASTIC
210000, 0.3
*SOLID SECTION, ELSET=EALL, MATERIAL=STEEL
*BOUNDARY
1, 1, 1, -0.0991118
1, 2, 2, -0.000295639
1, 3, 3, -0.655665
2, 1, 1, -0.0775404
2, 2, 2, -0.000231157
2, 3, 3, -0.655342
3, 1, 1, -0.055969
3, 2, 2, -0.000166675
3, 3, 3, -0.655019
4, 1, 1, -0.0991127
4, 2, 2, -0.000147819508747
4, 3, 3, -0.6556765
5, 1, 1, -0.0775403
5, 2, 2, -0.000115578507185
5, 3, 3, -0.65535325
6, 1, 1, -0.0559679
6, 2, 2, -8.33375056239e-05
6, 3, 3, -0.65503
7, 1, 1, -0.0991136
7, 2, 2, -1.74933e-11
** ... 298 like lines cut
*STEP
*STATIC
*NODE FILE
U
*EL FILE
S, ENER
*EL PRINT, ELSET=EALL
ELSE
*ENERGY PRINT
*END STEP
