*HEADING
R8 clamp_web h-branch ccx vs in-process
local Dirichlet problem; displacements on the cut from the global FE solution
*NODE, NSET=NALL
1, 0, -10, 0
2, 0, -10, 14
3, 0, -10, 28
4, 0, -5, 0
5, 0, -5, 14
6, 0, -5, 28
7, 0, 0, 0
8, 0, 0, 14
9, 0, 0, 28
10, 55.5555555556, -10, 0
11, 55.5555555556, -10, 14
12, 55.5555555556, -10, 28
13, 55.5555555556, -5, 0
14, 55.5555555556, -5, 14
15, 55.5555555556, -5, 28
16, 55.5555555556, 0, 0
17, 55.5555555556, 0, 14
18, 55.5555555556, 0, 28
19, 111.111111111, -10, 0
20, 111.111111111, -10, 14
** ... 79 like lines cut
*ELEMENT, TYPE=C3D8, ELSET=EALL
1, 1, 10, 13, 4, 2, 11, 14, 5
2, 2, 11, 14, 5, 3, 12, 15, 6
3, 4, 13, 16, 7, 5, 14, 17, 8
4, 5, 14, 17, 8, 6, 15, 18, 9
5, 10, 19, 22, 13, 11, 20, 23, 14
6, 11, 20, 23, 14, 12, 21, 24, 15
7, 13, 22, 25, 16, 14, 23, 26, 17
8, 14, 23, 26, 17, 15, 24, 27, 18
9, 3, 12, 15, 6, 28, 34, 36, 30
10, 28, 34, 36, 30, 29, 35, 37, 31
11, 6, 15, 18, 9, 30, 36, 38, 32
12, 30, 36, 38, 32, 31, 37, 39, 33
13, 12, 21, 24, 15, 34, 40, 42, 36
14, 34, 40, 42, 36, 35, 41, 43, 37
15, 15, 24, 27, 18, 36, 42, 44, 38
16, 36, 42, 44, 38, 37, 43, 45, 39
17, 29, 35, 37, 31, 46, 52, 54, 48
18, 46, 52, 54, 48, 47, 53, 55, 49
19, 31, 37, 39, 33, 48, 54, 56, 50
20, 48, 54, 56, 50, 49, 55, 57, 51
** ... 20 like lines cut
*NSET, NSET=BDRY
1, 2, 3, 4, 5, 6, 7, 8, 9, 10, 11, 12, 13, 16, 17, 18
19, 20, 21, 22, 23, 24, 25, 26, 27, 28, 29, 30, 31, 32, 33, 34
35, 39, 40, 41, 43, 44, 45, 46, 47, 48, 49, 50, 51, 52, 53, 55
56, 57, 58, 59, 60, 61, 62, 63, 64, 65, 66, 67, 68, 69, 70, 72
73, 74, 75, 76, 77, 78, 79, 80, 81, 82, 83, 84, 85, 87, 88, 89
90, 91, 92, 93, 94, 95, 96, 97, 98, 99
*NSET, NSET=FREE
14, 15, 36, 37, 38, 42, 54, 71, 86
*MATERIAL, NAME=STEEL
*ELASTIC
210000, 0.3
*SOLID SECTION, ELSET=EALL, MATERIAL=STEEL
*BOUNDARY
1, 1, 1, 0
1, 2, 2, 0
1, 3, 3, 0
2, 1, 1, 0
2, 2, 2, 0
2, 3, 3, 0
3, 1, 1, 0
3, 2, 2, 0
3, 3, 3, 0
4, 1, 1, 0
4, 2, 2, 0
4, 3, 3, 0
5, 1, 1, 0
5, 2, 2, 0
5, 3, 3, 0
6, 1, 1, 0
6, 2, 2, 0
6, 3, 3, 0
7, 1, 1, 0
7, 2, 2, 0
** ... 250 like lines cut
*STEP
*STATIC
*NODE FILE
U
*EL FILE
S, ENER
*EL PRINT, ELSET=EALL
ELSE
*ENERGY PRINT
*END STEP
