*HEADING
T10 S-LIN hanging 8-split zz cycle 1
units: mm, N, s, MPa. Material is illustrative steel, not a coupon card.
E=210000.0 nu=0.3. load -5000.0 N on TIP_TOP.
*NODE, NSET=NALL
1, 0, -10, 0
2, 111.111111111, -10, 4.44444444444
3, 111.111111111, 0, 4.44444444444
4, 0, 0, 0
5, 0, -10, 36
6, 111.111111111, -10, 39.5555555556
7, 111.111111111, 0, 39.5555555556
8, 0, 0, 36
9, 0, -10, 72
10, 111.111111111, -10, 74.6666666667
11, 111.111111111, 0, 74.6666666667
12, 0, 0, 72
13, 0, -10, 108
14, 111.111111111, -10, 109.777777778
15, 111.111111111, 0, 109.777777778
16, 0, 0, 108
17, 0, -10, 144
18, 111.111111111, -10, 144.888888889
19, 111.111111111, 0, 144.888888889
20, 0, 0, 144
** ... 1735 like lines cut
*ELEMENT, TYPE=C3D8, ELSET=EALL
1, 1, 918, 921, 914, 913, 919, 922, 915
2, 913, 919, 922, 915, 5, 920, 923, 916
3, 914, 921, 924, 4, 915, 922, 925, 917
4, 915, 922, 925, 917, 916, 923, 926, 8
5, 918, 2, 928, 921, 919, 927, 929, 922
6, 919, 927, 929, 922, 920, 6, 930, 923
7, 921, 928, 3, 924, 922, 929, 931, 925
8, 922, 929, 931, 925, 923, 930, 7, 926
9, 5, 6, 7, 8, 9, 10, 11, 12
10, 9, 10, 11, 12, 13, 14, 15, 16
11, 13, 14, 15, 16, 17, 18, 19, 20
12, 17, 18, 19, 20, 21, 22, 23, 24
13, 4, 924, 936, 932, 917, 925, 937, 933
14, 917, 925, 937, 933, 8, 926, 938, 934
15, 932, 936, 939, 26, 933, 937, 940, 935
16, 933, 937, 940, 935, 934, 938, 941, 28
17, 924, 3, 942, 936, 925, 931, 943, 937
18, 925, 931, 943, 937, 926, 7, 944, 938
19, 936, 942, 25, 939, 937, 943, 945, 940
20, 937, 943, 945, 940, 938, 944, 27, 941
** ... 968 like lines cut
*NSET, NSET=CLAMP
1, 4, 5, 8, 9, 12, 13, 16, 17, 20, 21, 24, 26, 28, 30, 32
34, 36, 37, 40, 41, 44, 45, 48, 50, 52, 54, 56, 58, 60, 62, 64
66, 68, 70, 72, 74, 76, 78, 80, 82, 84, 86, 88, 90, 92, 94, 96
913, 914, 915, 916, 917, 932, 933, 934, 935
*NSET, NSET=TIP_TOP
887, 888, 891, 894, 896, 898, 900, 903, 906, 909, 912, 1698, 1730, 1754
*MATERIAL, NAME=STEEL
*ELASTIC
210000, 0.3
*SOLID SECTION, ELSET=EALL, MATERIAL=STEEL
*EQUATION
3
920, 1, 1.0, 5, 1, -0.5, 6, 1, -0.5
*EQUATION
3
920, 2, 1.0, 5, 2, -0.5, 6, 2, -0.5
*EQUATION
3
920, 3, 1.0, 5, 3, -0.5, 6, 3, -0.5
*EQUATION
5
923, 1, 1.0, 5, 1, -0.25, 6, 1, -0.25, 7, 1, -0.25, 8, 1, -0.25
*EQUATION
5
923, 2, 1.0, 5, 2, -0.25, 6, 2, -0.25, 7, 2, -0.25, 8, 2, -0.25
*EQUATION
5
923, 3, 1.0, 5, 3, -0.25, 6, 3, -0.25, 7, 3, -0.25, 8, 3, -0.25
*EQUATION
3
926, 1, 1.0, 7, 1, -0.5, 8, 1, -0.5
*EQUATION
3
926, 2, 1.0, 7, 2, -0.5, 8, 2, -0.5
*EQUATION
3
926, 3, 1.0, 7, 3, -0.5, 8, 3, -0.5
*EQUATION
3
930, 1, 1.0, 6, 1, -0.5, 7, 1, -0.5
*EQUATION
3
930, 2, 1.0, 6, 2, -0.5, 7, 2, -0.5
*EQUATION
3
930, 3, 1.0, 6, 3, -0.5, 7, 3, -0.5
*EQUATION
5
938, 1, 1.0, 8, 1, -0.25, 7, 1, -0.25, 27, 1, -0.25, 28, 1, -0.25
*EQUATION
5
938, 2, 1.0, 8, 2, -0.25, 7, 2, -0.25, 27, 2, -0.25, 28, 2, -0.25
*EQUATION
5
938, 3, 1.0, 8, 3, -0.25, 7, 3, -0.25, 27, 3, -0.25, 28, 3, -0.25
*EQUATION
3
941, 1, 1.0, 27, 1, -0.5, 28, 1, -0.5
*EQUATION
3
941, 2, 1.0, 27, 2, -0.5, 28, 2, -0.5
*EQUATION
3
941, 3, 1.0, 27, 3, -0.5, 28, 3, -0.5
*EQUATION
3
944, 1, 1.0, 7, 1, -0.5, 27, 1, -0.5
*EQUATION
3
944, 2, 1.0, 7, 2, -0.5, 27, 2, -0.5
*EQUATION
3
944, 3, 1.0, 7, 3, -0.5, 27, 3, -0.5
*EQUATION
3
948, 1, 1.0, 6, 1, -0.5, 99, 1, -0.5
*EQUATION
3
948, 2, 1.0, 6, 2, -0.5, 99, 2, -0.5
*EQUATION
3
948, 3, 1.0, 6, 3, -0.5, 99, 3, -0.5
*EQUATION
5
951, 1, 1.0, 6, 1, -0.25, 99, 1, -0.25, 100, 1, -0.25, 7, 1, -0.25
*EQUATION
5
951, 2, 1.0, 6, 2, -0.25, 99, 2, -0.25, 100, 2, -0.25, 7, 2, -0.25
*EQUATION
5
951, 3, 1.0, 6, 3, -0.25, 99, 3, -0.25, 100, 3, -0.25, 7, 3, -0.25
*EQUATION
3
954, 1, 1.0, 7, 1, -0.5, 100, 1, -0.5
*EQUATION
3
954, 2, 1.0, 7, 2, -0.5, 100, 2, -0.5
*EQUATION
3
954, 3, 1.0, 7, 3, -0.5, 100, 3, -0.5
*EQUATION
3
955, 1, 1.0, 97, 1, -0.5, 99, 1, -0.5
*EQUATION
3
955, 2, 1.0, 97, 2, -0.5, 99, 2, -0.5
*EQUATION
3
955, 3, 1.0, 97, 3, -0.5, 99, 3, -0.5
*EQUATION
3
956, 1, 1.0, 97, 1, -0.5, 98, 1, -0.5
*EQUATION
3
956, 2, 1.0, 97, 2, -0.5, 98, 2, -0.5
*EQUATION
3
956, 3, 1.0, 97, 3, -0.5, 98, 3, -0.5
*EQUATION
5
957, 1, 1.0, 97, 1, -0.25, 98, 1, -0.25, 100, 1, -0.25, 99, 1, -0.25
*EQUATION
5
957, 2, 1.0, 97, 2, -0.25, 98, 2, -0.25, 100, 2, -0.25, 99, 2, -0.25
*EQUATION
5
957, 3, 1.0, 97, 3, -0.25, 98, 3, -0.25, 100, 3, -0.25, 99, 3, -0.25
*EQUATION
3
958, 1, 1.0, 99, 1, -0.5, 100, 1, -0.5
*EQUATION
3
958, 2, 1.0, 99, 2, -0.5, 100, 2, -0.5
*EQUATION
3
958, 3, 1.0, 99, 3, -0.5, 100, 3, -0.5
*EQUATION
3
959, 1, 1.0, 98, 1, -0.5, 100, 1, -0.5
*EQUATION
3
959, 2, 1.0, 98, 2, -0.5, 100, 2, -0.5
*EQUATION
3
959, 3, 1.0, 98, 3, -0.5, 100, 3, -0.5
*EQUATION
5
962, 1, 1.0, 7, 1, -0.25, 100, 1, -0.25, 110, 1, -0.25, 27, 1, -0.25
*EQUATION
5
962, 2, 1.0, 7, 2, -0.25, 100, 2, -0.25, 110, 2, -0.25, 27, 2, -0.25
*EQUATION
5
962, 3, 1.0, 7, 3, -0.25, 100, 3, -0.25, 110, 3, -0.25, 27, 3, -0.25
*EQUATION
3
965, 1, 1.0, 27, 1, -0.5, 110, 1, -0.5
*EQUATION
3
965, 2, 1.0, 27, 2, -0.5, 110, 2, -0.5
*EQUATION
3
965, 3, 1.0, 27, 3, -0.5, 110, 3, -0.5
*EQUATION
3
966, 1, 1.0, 98, 1, -0.5, 109, 1, -0.5
*EQUATION
3
966, 2, 1.0, 98, 2, -0.5, 109, 2, -0.5
*EQUATION
3
966, 3, 1.0, 98, 3, -0.5, 109, 3, -0.5
*EQUATION
5
967, 1, 1.0, 98, 1, -0.25, 109, 1, -0.25, 110, 1, -0.25, 100, 1, -0.25
*EQUATION
5
967, 2, 1.0, 98, 2, -0.25, 109, 2, -0.25, 110, 2, -0.25, 100, 2, -0.25
*EQUATION
5
967, 3, 1.0, 98, 3, -0.25, 109, 3, -0.25, 110, 3, -0.25, 100, 3, -0.25
*EQUATION
3
968, 1, 1.0, 100, 1, -0.5, 110, 1, -0.5
*EQUATION
3
968, 2, 1.0, 100, 2, -0.5, 110, 2, -0.5
*EQUATION
3
968, 3, 1.0, 100, 3, -0.5, 110, 3, -0.5
*EQUATION
3
969, 1, 1.0, 109, 1, -0.5, 110, 1, -0.5
*EQUATION
3
969, 2, 1.0, 109, 2, -0.5, 110, 2, -0.5
*EQUATION
3
969, 3, 1.0, 109, 3, -0.5, 110, 3, -0.5
*EQUATION
3
970, 1, 1.0, 146, 1, -0.5, 148, 1, -0.5
*EQUATION
3
970, 2, 1.0, 146, 2, -0.5, 148, 2, -0.5
*EQUATION
3
970, 3, 1.0, 146, 3, -0.5, 148, 3, -0.5
*EQUATION
3
971, 1, 1.0, 146, 1, -0.5, 157, 1, -0.5
*EQUATION
3
971, 2, 1.0, 146, 2, -0.5, 157, 2, -0.5
*EQUATION
3
971, 3, 1.0, 146, 3, -0.5, 157, 3, -0.5
*EQUATION
5
972, 1, 1.0, 146, 1, -0.25, 157, 1, -0.25, 158, 1, -0.25, 148, 1, -0.25
*EQUATION
5
972, 2, 1.0, 146, 2, -0.25, 157, 2, -0.25, 158, 2, -0.25, 148, 2, -0.25
*EQUATION
5
972, 3, 1.0, 146, 3, -0.25, 157, 3, -0.25, 158, 3, -0.25, 148, 3, -0.25
*EQUATION
3
973, 1, 1.0, 148, 1, -0.5, 158, 1, -0.5
*EQUATION
3
973, 2, 1.0, 148, 2, -0.5, 158, 2, -0.5
*EQUATION
3
973, 3, 1.0, 148, 3, -0.5, 158, 3, -0.5
*EQUATION
3
974, 1, 1.0, 157, 1, -0.5, 158, 1, -0.5
*EQUATION
3
974, 2, 1.0, 157, 2, -0.5, 158, 2, -0.5
*EQUATION
3
974, 3, 1.0, 157, 3, -0.5, 158, 3, -0.5
*EQUATION
3
975, 1, 1.0, 146, 1, -0.5, 194, 1, -0.5
*EQUATION
3
975, 2, 1.0, 146, 2, -0.5, 194, 2, -0.5
*EQUATION
3
975, 3, 1.0, 146, 3, -0.5, 194, 3, -0.5
*EQUATION
5
976, 1, 1.0, 146, 1, -0.25, 194, 1, -0.25, 196, 1, -0.25, 148, 1, -0.25
*EQUATION
5
976, 2, 1.0, 146, 2, -0.25, 194, 2, -0.25, 196, 2, -0.25, 148, 2, -0.25
*EQUATION
5
976, 3, 1.0, 146, 3, -0.25, 194, 3, -0.25, 196, 3, -0.25, 148, 3, -0.25
*EQUATION
3
977, 1, 1.0, 148, 1, -0.5, 196, 1, -0.5
*EQUATION
3
977, 2, 1.0, 148, 2, -0.5, 196, 2, -0.5
*EQUATION
3
977, 3, 1.0, 148, 3, -0.5, 196, 3, -0.5
*EQUATION
5
980, 1, 1.0, 148, 1, -0.25, 196, 1, -0.25, 206, 1, -0.25, 158, 1, -0.25
*EQUATION
5
980, 2, 1.0, 148, 2, -0.25, 196, 2, -0.25, 206, 2, -0.25, 158, 2, -0.25
*EQUATION
5
980, 3, 1.0, 148, 3, -0.25, 196, 3, -0.25, 206, 3, -0.25, 158, 3, -0.25
*EQUATION
3
983, 1, 1.0, 158, 1, -0.5, 206, 1, -0.5
*EQUATION
3
983, 2, 1.0, 158, 2, -0.5, 206, 2, -0.5
*EQUATION
3
983, 3, 1.0, 158, 3, -0.5, 206, 3, -0.5
*EQUATION
3
984, 1, 1.0, 194, 1, -0.5, 196, 1, -0.5
*EQUATION
3
984, 2, 1.0, 194, 2, -0.5, 196, 2, -0.5
*EQUATION
3
984, 3, 1.0, 194, 3, -0.5, 196, 3, -0.5
*EQUATION
3
985, 1, 1.0, 194, 1, -0.5, 205, 1, -0.5
*EQUATION
3
985, 2, 1.0, 194, 2, -0.5, 205, 2, -0.5
*EQUATION
3
985, 3, 1.0, 194, 3, -0.5, 205, 3, -0.5
*EQUATION
5
986, 1, 1.0, 194, 1, -0.25, 205, 1, -0.25, 206, 1, -0.25, 196, 1, -0.25
*EQUATION
5
986, 2, 1.0, 194, 2, -0.25, 205, 2, -0.25, 206, 2, -0.25, 196, 2, -0.25
*EQUATION
5
986, 3, 1.0, 194, 3, -0.25, 205, 3, -0.25, 206, 3, -0.25, 196, 3, -0.25
*EQUATION
3
987, 1, 1.0, 196, 1, -0.5, 206, 1, -0.5
*EQUATION
3
987, 2, 1.0, 196, 2, -0.5, 206, 2, -0.5
*EQUATION
3
987, 3, 1.0, 196, 3, -0.5, 206, 3, -0.5
*EQUATION
3
988, 1, 1.0, 205, 1, -0.5, 206, 1, -0.5
*EQUATION
3
988, 2, 1.0, 205, 2, -0.5, 206, 2, -0.5
*EQUATION
3
988, 3, 1.0, 205, 3, -0.5, 206, 3, -0.5
*EQUATION
3
989, 1, 1.0, 385, 1, -0.5, 387, 1, -0.5
*EQUATION
3
989, 2, 1.0, 385, 2, -0.5, 387, 2, -0.5
*EQUATION
3
989, 3, 1.0, 385, 3, -0.5, 387, 3, -0.5
*EQUATION
3
990, 1, 1.0, 385, 1, -0.5, 386, 1, -0.5
*EQUATION
3
990, 2, 1.0, 385, 2, -0.5, 386, 2, -0.5
*EQUATION
3
990, 3, 1.0, 385, 3, -0.5, 386, 3, -0.5
*EQUATION
5
991, 1, 1.0, 385, 1, -0.25, 386, 1, -0.25, 388, 1, -0.25, 387, 1, -0.25
*EQUATION
5
991, 2, 1.0, 385, 2, -0.25, 386, 2, -0.25, 388, 2, -0.25, 387, 2, -0.25
*EQUATION
5
991, 3, 1.0, 385, 3, -0.25, 386, 3, -0.25, 388, 3, -0.25, 387, 3, -0.25
*EQUATION
3
992, 1, 1.0, 387, 1, -0.5, 388, 1, -0.5
*EQUATION
3
992, 2, 1.0, 387, 2, -0.5, 388, 2, -0.5
*EQUATION
3
992, 3, 1.0, 387, 3, -0.5, 388, 3, -0.5
*EQUATION
3
993, 1, 1.0, 386, 1, -0.5, 388, 1, -0.5
*EQUATION
3
993, 2, 1.0, 386, 2, -0.5, 388, 2, -0.5
*EQUATION
3
993, 3, 1.0, 386, 3, -0.5, 388, 3, -0.5
*EQUATION
3
996, 1, 1.0, 387, 1, -0.5, 435, 1, -0.5
*EQUATION
3
996, 2, 1.0, 387, 2, -0.5, 435, 2, -0.5
*EQUATION
3
996, 3, 1.0, 387, 3, -0.5, 435, 3, -0.5
*EQUATION
5
999, 1, 1.0, 387, 1, -0.25, 435, 1, -0.25, 436, 1, -0.25, 388, 1, -0.25
*EQUATION
5
999, 2, 1.0, 387, 2, -0.25, 435, 2, -0.25, 436, 2, -0.25, 388, 2, -0.25
*EQUATION
5
999, 3, 1.0, 387, 3, -0.25, 435, 3, -0.25, 436, 3, -0.25, 388, 3, -0.25
*EQUATION
3
1002, 1, 1.0, 388, 1, -0.5, 436, 1, -0.5
*EQUATION
3
1002, 2, 1.0, 388, 2, -0.5, 436, 2, -0.5
*EQUATION
3
1002, 3, 1.0, 388, 3, -0.5, 436, 3, -0.5
*EQUATION
3
1006, 1, 1.0, 435, 1, -0.5, 436, 1, -0.5
*EQUATION
3
1006, 2, 1.0, 435, 2, -0.5, 436, 2, -0.5
*EQUATION
3
1006, 3, 1.0, 435, 3, -0.5, 436, 3, -0.5
*EQUATION
3
1008, 1, 1.0, 386, 1, -0.5, 397, 1, -0.5
*EQUATION
3
1008, 2, 1.0, 386, 2, -0.5, 397, 2, -0.5
*EQUATION
3
1008, 3, 1.0, 386, 3, -0.5, 397, 3, -0.5
*EQUATION
5
1009, 1, 1.0, 386, 1, -0.25, 397, 1, -0.25, 398, 1, -0.25, 388, 1, -0.25
*EQUATION
5
1009, 2, 1.0, 386, 2, -0.25, 397, 2, -0.25, 398, 2, -0.25, 388, 2, -0.25
*EQUATION
5
1009, 3, 1.0, 386, 3, -0.25, 397, 3, -0.25, 398, 3, -0.25, 388, 3, -0.25
*EQUATION
3
1010, 1, 1.0, 388, 1, -0.5, 398, 1, -0.5
*EQUATION
3
1010, 2, 1.0, 388, 2, -0.5, 398, 2, -0.5
*EQUATION
3
1010, 3, 1.0, 388, 3, -0.5, 398, 3, -0.5
*EQUATION
3
1011, 1, 1.0, 397, 1, -0.5, 398, 1, -0.5
*EQUATION
3
1011, 2, 1.0, 397, 2, -0.5, 398, 2, -0.5
*EQUATION
3
1011, 3, 1.0, 397, 3, -0.5, 398, 3, -0.5
*EQUATION
5
1014, 1, 1.0, 388, 1, -0.25, 436, 1, -0.25, 446, 1, -0.25, 398, 1, -0.25
*EQUATION
5
1014, 2, 1.0, 388, 2, -0.25, 436, 2, -0.25, 446, 2, -0.25, 398, 2, -0.25
*EQUATION
5
1014, 3, 1.0, 388, 3, -0.25, 436, 3, -0.25, 446, 3, -0.25, 398, 3, -0.25
*EQUATION
3
1017, 1, 1.0, 398, 1, -0.5, 446, 1, -0.5
*EQUATION
3
1017, 2, 1.0, 398, 2, -0.5, 446, 2, -0.5
*EQUATION
3
1017, 3, 1.0, 398, 3, -0.5, 446, 3, -0.5
*EQUATION
3
1020, 1, 1.0, 436, 1, -0.5, 446, 1, -0.5
*EQUATION
3
1020, 2, 1.0, 436, 2, -0.5, 446, 2, -0.5
*EQUATION
3
1020, 3, 1.0, 436, 3, -0.5, 446, 3, -0.5
*EQUATION
3
1024, 1, 1.0, 435, 1, -0.5, 483, 1, -0.5
*EQUATION
3
1024, 2, 1.0, 435, 2, -0.5, 483, 2, -0.5
*EQUATION
3
1024, 3, 1.0, 435, 3, -0.5, 483, 3, -0.5
*EQUATION
5
1027, 1, 1.0, 435, 1, -0.25, 483, 1, -0.25, 484, 1, -0.25, 436, 1, -0.25
*EQUATION
5
1027, 2, 1.0, 435, 2, -0.25, 483, 2, -0.25, 484, 2, -0.25, 436, 2, -0.25
*EQUATION
5
1027, 3, 1.0, 435, 3, -0.25, 483, 3, -0.25, 484, 3, -0.25, 436, 3, -0.25
*EQUATION
3
1030, 1, 1.0, 436, 1, -0.5, 484, 1, -0.5
*EQUATION
3
1030, 2, 1.0, 436, 2, -0.5, 484, 2, -0.5
*EQUATION
3
1030, 3, 1.0, 436, 3, -0.5, 484, 3, -0.5
*EQUATION
3
1034, 1, 1.0, 483, 1, -0.5, 484, 1, -0.5
*EQUATION
3
1034, 2, 1.0, 483, 2, -0.5, 484, 2, -0.5
*EQUATION
3
1034, 3, 1.0, 483, 3, -0.5, 484, 3, -0.5
*EQUATION
5
1038, 1, 1.0, 436, 1, -0.25, 484, 1, -0.25, 494, 1, -0.25, 446, 1, -0.25
*EQUATION
5
1038, 2, 1.0, 436, 2, -0.25, 484, 2, -0.25, 494, 2, -0.25, 446, 2, -0.25
*EQUATION
5
1038, 3, 1.0, 436, 3, -0.25, 484, 3, -0.25, 494, 3, -0.25, 446, 3, -0.25
*EQUATION
3
1041, 1, 1.0, 446, 1, -0.5, 494, 1, -0.5
*EQUATION
3
1041, 2, 1.0, 446, 2, -0.5, 494, 2, -0.5
*EQUATION
3
1041, 3, 1.0, 446, 3, -0.5, 494, 3, -0.5
*EQUATION
3
1044, 1, 1.0, 484, 1, -0.5, 494, 1, -0.5
*EQUATION
3
1044, 2, 1.0, 484, 2, -0.5, 494, 2, -0.5
*EQUATION
3
1044, 3, 1.0, 484, 3, -0.5, 494, 3, -0.5
*EQUATION
3
1048, 1, 1.0, 483, 1, -0.5, 531, 1, -0.5
*EQUATION
3
1048, 2, 1.0, 483, 2, -0.5, 531, 2, -0.5
*EQUATION
3
1048, 3, 1.0, 483, 3, -0.5, 531, 3, -0.5
*EQUATION
5
1051, 1, 1.0, 483, 1, -0.25, 531, 1, -0.25, 532, 1, -0.25, 484, 1, -0.25
*EQUATION
5
1051, 2, 1.0, 483, 2, -0.25, 531, 2, -0.25, 532, 2, -0.25, 484, 2, -0.25
*EQUATION
5
1051, 3, 1.0, 483, 3, -0.25, 531, 3, -0.25, 532, 3, -0.25, 484, 3, -0.25
*EQUATION
3
1054, 1, 1.0, 484, 1, -0.5, 532, 1, -0.5
*EQUATION
3
1054, 2, 1.0, 484, 2, -0.5, 532, 2, -0.5
*EQUATION
3
1054, 3, 1.0, 484, 3, -0.5, 532, 3, -0.5
*EQUATION
3
1058, 1, 1.0, 531, 1, -0.5, 532, 1, -0.5
*EQUATION
3
1058, 2, 1.0, 531, 2, -0.5, 532, 2, -0.5
*EQUATION
3
1058, 3, 1.0, 531, 3, -0.5, 532, 3, -0.5
*EQUATION
5
1062, 1, 1.0, 484, 1, -0.25, 532, 1, -0.25, 542, 1, -0.25, 494, 1, -0.25
*EQUATION
5
1062, 2, 1.0, 484, 2, -0.25, 532, 2, -0.25, 542, 2, -0.25, 494, 2, -0.25
*EQUATION
5
1062, 3, 1.0, 484, 3, -0.25, 532, 3, -0.25, 542, 3, -0.25, 494, 3, -0.25
*EQUATION
3
1065, 1, 1.0, 494, 1, -0.5, 542, 1, -0.5
*EQUATION
3
1065, 2, 1.0, 494, 2, -0.5, 542, 2, -0.5
*EQUATION
3
1065, 3, 1.0, 494, 3, -0.5, 542, 3, -0.5
*EQUATION
3
1068, 1, 1.0, 532, 1, -0.5, 542, 1, -0.5
*EQUATION
3
1068, 2, 1.0, 532, 2, -0.5, 542, 2, -0.5
*EQUATION
3
1068, 3, 1.0, 532, 3, -0.5, 542, 3, -0.5
*EQUATION
3
1070, 1, 1.0, 499, 1, -0.5, 501, 1, -0.5
*EQUATION
3
1070, 2, 1.0, 499, 2, -0.5, 501, 2, -0.5
*EQUATION
3
1070, 3, 1.0, 499, 3, -0.5, 501, 3, -0.5
*EQUATION
3
1071, 1, 1.0, 499, 1, -0.5, 500, 1, -0.5
*EQUATION
3
1071, 2, 1.0, 499, 2, -0.5, 500, 2, -0.5
*EQUATION
3
1071, 3, 1.0, 499, 3, -0.5, 500, 3, -0.5
*EQUATION
5
1072, 1, 1.0, 499, 1, -0.25, 500, 1, -0.25, 502, 1, -0.25, 501, 1, -0.25
*EQUATION
5
1072, 2, 1.0, 499, 2, -0.25, 500, 2, -0.25, 502, 2, -0.25, 501, 2, -0.25
*EQUATION
5
1072, 3, 1.0, 499, 3, -0.25, 500, 3, -0.25, 502, 3, -0.25, 501, 3, -0.25
*EQUATION
3
1073, 1, 1.0, 501, 1, -0.5, 502, 1, -0.5
*EQUATION
3
1073, 2, 1.0, 501, 2, -0.5, 502, 2, -0.5
*EQUATION
3
1073, 3, 1.0, 501, 3, -0.5, 502, 3, -0.5
*EQUATION
3
1074, 1, 1.0, 500, 1, -0.5, 502, 1, -0.5
*EQUATION
3
1074, 2, 1.0, 500, 2, -0.5, 502, 2, -0.5
*EQUATION
3
1074, 3, 1.0, 500, 3, -0.5, 502, 3, -0.5
*EQUATION
3
1081, 1, 1.0, 500, 1, -0.5, 548, 1, -0.5
*EQUATION
3
1081, 2, 1.0, 500, 2, -0.5, 548, 2, -0.5
*EQUATION
3
1081, 3, 1.0, 500, 3, -0.5, 548, 3, -0.5
*EQUATION
5
1082, 1, 1.0, 500, 1, -0.25, 548, 1, -0.25, 550, 1, -0.25, 502, 1, -0.25
*EQUATION
5
1082, 2, 1.0, 500, 2, -0.25, 548, 2, -0.25, 550, 2, -0.25, 502, 2, -0.25
*EQUATION
5
1082, 3, 1.0, 500, 3, -0.25, 548, 3, -0.25, 550, 3, -0.25, 502, 3, -0.25
*EQUATION
3
1083, 1, 1.0, 502, 1, -0.5, 550, 1, -0.5
*EQUATION
3
1083, 2, 1.0, 502, 2, -0.5, 550, 2, -0.5
*EQUATION
3
1083, 3, 1.0, 502, 3, -0.5, 550, 3, -0.5
*EQUATION
3
1088, 1, 1.0, 548, 1, -0.5, 550, 1, -0.5
*EQUATION
3
1088, 2, 1.0, 548, 2, -0.5, 550, 2, -0.5
*EQUATION
3
1088, 3, 1.0, 548, 3, -0.5, 550, 3, -0.5
*EQUATION
3
1089, 1, 1.0, 501, 1, -0.5, 503, 1, -0.5
*EQUATION
3
1089, 2, 1.0, 501, 2, -0.5, 503, 2, -0.5
*EQUATION
3
1089, 3, 1.0, 501, 3, -0.5, 503, 3, -0.5
*EQUATION
5
1090, 1, 1.0, 501, 1, -0.25, 502, 1, -0.25, 504, 1, -0.25, 503, 1, -0.25
*EQUATION
5
1090, 2, 1.0, 501, 2, -0.25, 502, 2, -0.25, 504, 2, -0.25, 503, 2, -0.25
*EQUATION
5
1090, 3, 1.0, 501, 3, -0.25, 502, 3, -0.25, 504, 3, -0.25, 503, 3, -0.25
*EQUATION
3
1091, 1, 1.0, 503, 1, -0.5, 504, 1, -0.5
*EQUATION
3
1091, 2, 1.0, 503, 2, -0.5, 504, 2, -0.5
*EQUATION
3
1091, 3, 1.0, 503, 3, -0.5, 504, 3, -0.5
*EQUATION
3
1092, 1, 1.0, 502, 1, -0.5, 504, 1, -0.5
*EQUATION
3
1092, 2, 1.0, 502, 2, -0.5, 504, 2, -0.5
*EQUATION
3
1092, 3, 1.0, 502, 3, -0.5, 504, 3, -0.5
*EQUATION
5
1097, 1, 1.0, 502, 1, -0.25, 550, 1, -0.25, 552, 1, -0.25, 504, 1, -0.25
*EQUATION
5
1097, 2, 1.0, 502, 2, -0.25, 550, 2, -0.25, 552, 2, -0.25, 504, 2, -0.25
*EQUATION
5
1097, 3, 1.0, 502, 3, -0.25, 550, 3, -0.25, 552, 3, -0.25, 504, 3, -0.25
*EQUATION
3
1098, 1, 1.0, 504, 1, -0.5, 552, 1, -0.5
*EQUATION
3
1098, 2, 1.0, 504, 2, -0.5, 552, 2, -0.5
*EQUATION
3
1098, 3, 1.0, 504, 3, -0.5, 552, 3, -0.5
*EQUATION
3
1102, 1, 1.0, 550, 1, -0.5, 552, 1, -0.5
*EQUATION
3
1102, 2, 1.0, 550, 2, -0.5, 552, 2, -0.5
*EQUATION
3
1102, 3, 1.0, 550, 3, -0.5, 552, 3, -0.5
*EQUATION
3
1105, 1, 1.0, 531, 1, -0.5, 579, 1, -0.5
*EQUATION
3
1105, 2, 1.0, 531, 2, -0.5, 579, 2, -0.5
*EQUATION
3
1105, 3, 1.0, 531, 3, -0.5, 579, 3, -0.5
*EQUATION
5
1108, 1, 1.0, 531, 1, -0.25, 579, 1, -0.25, 580, 1, -0.25, 532, 1, -0.25
*EQUATION
5
1108, 2, 1.0, 531, 2, -0.25, 579, 2, -0.25, 580, 2, -0.25, 532, 2, -0.25
*EQUATION
5
1108, 3, 1.0, 531, 3, -0.25, 579, 3, -0.25, 580, 3, -0.25, 532, 3, -0.25
*EQUATION
3
1111, 1, 1.0, 532, 1, -0.5, 580, 1, -0.5
*EQUATION
3
1111, 2, 1.0, 532, 2, -0.5, 580, 2, -0.5
*EQUATION
3
1111, 3, 1.0, 532, 3, -0.5, 580, 3, -0.5
*EQUATION
3
1115, 1, 1.0, 579, 1, -0.5, 580, 1, -0.5
*EQUATION
3
1115, 2, 1.0, 579, 2, -0.5, 580, 2, -0.5
*EQUATION
3
1115, 3, 1.0, 579, 3, -0.5, 580, 3, -0.5
*EQUATION
5
1119, 1, 1.0, 532, 1, -0.25, 580, 1, -0.25, 590, 1, -0.25, 542, 1, -0.25
*EQUATION
5
1119, 2, 1.0, 532, 2, -0.25, 580, 2, -0.25, 590, 2, -0.25, 542, 2, -0.25
*EQUATION
5
1119, 3, 1.0, 532, 3, -0.25, 580, 3, -0.25, 590, 3, -0.25, 542, 3, -0.25
*EQUATION
3
1122, 1, 1.0, 542, 1, -0.5, 590, 1, -0.5
*EQUATION
3
1122, 2, 1.0, 542, 2, -0.5, 590, 2, -0.5
*EQUATION
3
1122, 3, 1.0, 542, 3, -0.5, 590, 3, -0.5
*EQUATION
3
1125, 1, 1.0, 580, 1, -0.5, 590, 1, -0.5
*EQUATION
3
1125, 2, 1.0, 580, 2, -0.5, 590, 2, -0.5
*EQUATION
3
1125, 3, 1.0, 580, 3, -0.5, 590, 3, -0.5
*EQUATION
3
1133, 1, 1.0, 548, 1, -0.5, 596, 1, -0.5
*EQUATION
3
1133, 2, 1.0, 548, 2, -0.5, 596, 2, -0.5
*EQUATION
3
1133, 3, 1.0, 548, 3, -0.5, 596, 3, -0.5
*EQUATION
5
1134, 1, 1.0, 548, 1, -0.25, 596, 1, -0.25, 598, 1, -0.25, 550, 1, -0.25
*EQUATION
5
1134, 2, 1.0, 548, 2, -0.25, 596, 2, -0.25, 598, 2, -0.25, 550, 2, -0.25
*EQUATION
5
1134, 3, 1.0, 548, 3, -0.25, 596, 3, -0.25, 598, 3, -0.25, 550, 3, -0.25
*EQUATION
3
1135, 1, 1.0, 550, 1, -0.5, 598, 1, -0.5
*EQUATION
3
1135, 2, 1.0, 550, 2, -0.5, 598, 2, -0.5
*EQUATION
3
1135, 3, 1.0, 550, 3, -0.5, 598, 3, -0.5
*EQUATION
3
1140, 1, 1.0, 596, 1, -0.5, 598, 1, -0.5
*EQUATION
3
1140, 2, 1.0, 596, 2, -0.5, 598, 2, -0.5
*EQUATION
3
1140, 3, 1.0, 596, 3, -0.5, 598, 3, -0.5
*EQUATION
5
1145, 1, 1.0, 550, 1, -0.25, 598, 1, -0.25, 600, 1, -0.25, 552, 1, -0.25
*EQUATION
5
1145, 2, 1.0, 550, 2, -0.25, 598, 2, -0.25, 600, 2, -0.25, 552, 2, -0.25
*EQUATION
5
1145, 3, 1.0, 550, 3, -0.25, 598, 3, -0.25, 600, 3, -0.25, 552, 3, -0.25
*EQUATION
3
1146, 1, 1.0, 552, 1, -0.5, 600, 1, -0.5
*EQUATION
3
1146, 2, 1.0, 552, 2, -0.5, 600, 2, -0.5
*EQUATION
3
1146, 3, 1.0, 552, 3, -0.5, 600, 3, -0.5
*EQUATION
3
1150, 1, 1.0, 598, 1, -0.5, 600, 1, -0.5
*EQUATION
3
1150, 2, 1.0, 598, 2, -0.5, 600, 2, -0.5
*EQUATION
3
1150, 3, 1.0, 598, 3, -0.5, 600, 3, -0.5
*EQUATION
3
1151, 1, 1.0, 571, 1, -0.5, 572, 1, -0.5
*EQUATION
3
1151, 2, 1.0, 571, 2, -0.5, 572, 2, -0.5
*EQUATION
3
1151, 3, 1.0, 571, 3, -0.5, 572, 3, -0.5
*EQUATION
3
1152, 1, 1.0, 571, 1, -0.5, 574, 1, -0.5
*EQUATION
3
1152, 2, 1.0, 571, 2, -0.5, 574, 2, -0.5
*EQUATION
3
1152, 3, 1.0, 571, 3, -0.5, 574, 3, -0.5
*EQUATION
5
1153, 1, 1.0, 571, 1, -0.25, 574, 1, -0.25, 575, 1, -0.25, 572, 1, -0.25
*EQUATION
5
1153, 2, 1.0, 571, 2, -0.25, 574, 2, -0.25, 575, 2, -0.25, 572, 2, -0.25
*EQUATION
5
1153, 3, 1.0, 571, 3, -0.25, 574, 3, -0.25, 575, 3, -0.25, 572, 3, -0.25
*EQUATION
3
1154, 1, 1.0, 572, 1, -0.5, 575, 1, -0.5
*EQUATION
3
1154, 2, 1.0, 572, 2, -0.5, 575, 2, -0.5
*EQUATION
3
1154, 3, 1.0, 572, 3, -0.5, 575, 3, -0.5
*EQUATION
3
1155, 1, 1.0, 574, 1, -0.5, 575, 1, -0.5
*EQUATION
3
1155, 2, 1.0, 574, 2, -0.5, 575, 2, -0.5
*EQUATION
3
1155, 3, 1.0, 574, 3, -0.5, 575, 3, -0.5
*EQUATION
3
1156, 1, 1.0, 571, 1, -0.5, 619, 1, -0.5
*EQUATION
3
1156, 2, 1.0, 571, 2, -0.5, 619, 2, -0.5
*EQUATION
3
1156, 3, 1.0, 571, 3, -0.5, 619, 3, -0.5
*EQUATION
5
1157, 1, 1.0, 571, 1, -0.25, 619, 1, -0.25, 620, 1, -0.25, 572, 1, -0.25
*EQUATION
5
1157, 2, 1.0, 571, 2, -0.25, 619, 2, -0.25, 620, 2, -0.25, 572, 2, -0.25
*EQUATION
5
1157, 3, 1.0, 571, 3, -0.25, 619, 3, -0.25, 620, 3, -0.25, 572, 3, -0.25
*EQUATION
3
1158, 1, 1.0, 572, 1, -0.5, 620, 1, -0.5
*EQUATION
3
1158, 2, 1.0, 572, 2, -0.5, 620, 2, -0.5
*EQUATION
3
1158, 3, 1.0, 572, 3, -0.5, 620, 3, -0.5
*EQUATION
3
1165, 1, 1.0, 619, 1, -0.5, 620, 1, -0.5
*EQUATION
3
1165, 2, 1.0, 619, 2, -0.5, 620, 2, -0.5
*EQUATION
3
1165, 3, 1.0, 619, 3, -0.5, 620, 3, -0.5
*EQUATION
3
1170, 1, 1.0, 572, 1, -0.5, 573, 1, -0.5
*EQUATION
3
1170, 2, 1.0, 572, 2, -0.5, 573, 2, -0.5
*EQUATION
3
1170, 3, 1.0, 572, 3, -0.5, 573, 3, -0.5
*EQUATION
5
1171, 1, 1.0, 572, 1, -0.25, 575, 1, -0.25, 576, 1, -0.25, 573, 1, -0.25
*EQUATION
5
1171, 2, 1.0, 572, 2, -0.25, 575, 2, -0.25, 576, 2, -0.25, 573, 2, -0.25
*EQUATION
5
1171, 3, 1.0, 572, 3, -0.25, 575, 3, -0.25, 576, 3, -0.25, 573, 3, -0.25
*EQUATION
3
1172, 1, 1.0, 573, 1, -0.5, 576, 1, -0.5
*EQUATION
3
1172, 2, 1.0, 573, 2, -0.5, 576, 2, -0.5
*EQUATION
3
1172, 3, 1.0, 573, 3, -0.5, 576, 3, -0.5
*EQUATION
3
1173, 1, 1.0, 575, 1, -0.5, 576, 1, -0.5
*EQUATION
3
1173, 2, 1.0, 575, 2, -0.5, 576, 2, -0.5
*EQUATION
3
1173, 3, 1.0, 575, 3, -0.5, 576, 3, -0.5
*EQUATION
5
1174, 1, 1.0, 572, 1, -0.25, 620, 1, -0.25, 621, 1, -0.25, 573, 1, -0.25
*EQUATION
5
1174, 2, 1.0, 572, 2, -0.25, 620, 2, -0.25, 621, 2, -0.25, 573, 2, -0.25
*EQUATION
5
1174, 3, 1.0, 572, 3, -0.25, 620, 3, -0.25, 621, 3, -0.25, 573, 3, -0.25
*EQUATION
3
1175, 1, 1.0, 573, 1, -0.5, 621, 1, -0.5
*EQUATION
3
1175, 2, 1.0, 573, 2, -0.5, 621, 2, -0.5
*EQUATION
3
1175, 3, 1.0, 573, 3, -0.5, 621, 3, -0.5
*EQUATION
3
1180, 1, 1.0, 620, 1, -0.5, 621, 1, -0.5
*EQUATION
3
1180, 2, 1.0, 620, 2, -0.5, 621, 2, -0.5
*EQUATION
3
1180, 3, 1.0, 620, 3, -0.5, 621, 3, -0.5
*EQUATION
3
1186, 1, 1.0, 579, 1, -0.5, 627, 1, -0.5
*EQUATION
3
1186, 2, 1.0, 579, 2, -0.5, 627, 2, -0.5
*EQUATION
3
1186, 3, 1.0, 579, 3, -0.5, 627, 3, -0.5
*EQUATION
5
1189, 1, 1.0, 579, 1, -0.25, 627, 1, -0.25, 628, 1, -0.25, 580, 1, -0.25
*EQUATION
5
1189, 2, 1.0, 579, 2, -0.25, 627, 2, -0.25, 628, 2, -0.25, 580, 2, -0.25
*EQUATION
5
1189, 3, 1.0, 579, 3, -0.25, 627, 3, -0.25, 628, 3, -0.25, 580, 3, -0.25
*EQUATION
3
1192, 1, 1.0, 580, 1, -0.5, 628, 1, -0.5
*EQUATION
3
1192, 2, 1.0, 580, 2, -0.5, 628, 2, -0.5
*EQUATION
3
1192, 3, 1.0, 580, 3, -0.5, 628, 3, -0.5
*EQUATION
3
1196, 1, 1.0, 627, 1, -0.5, 628, 1, -0.5
*EQUATION
3
1196, 2, 1.0, 627, 2, -0.5, 628, 2, -0.5
*EQUATION
3
1196, 3, 1.0, 627, 3, -0.5, 628, 3, -0.5
*EQUATION
5
1200, 1, 1.0, 580, 1, -0.25, 628, 1, -0.25, 638, 1, -0.25, 590, 1, -0.25
*EQUATION
5
1200, 2, 1.0, 580, 2, -0.25, 628, 2, -0.25, 638, 2, -0.25, 590, 2, -0.25
*EQUATION
5
1200, 3, 1.0, 580, 3, -0.25, 628, 3, -0.25, 638, 3, -0.25, 590, 3, -0.25
*EQUATION
3
1203, 1, 1.0, 590, 1, -0.5, 638, 1, -0.5
*EQUATION
3
1203, 2, 1.0, 590, 2, -0.5, 638, 2, -0.5
*EQUATION
3
1203, 3, 1.0, 590, 3, -0.5, 638, 3, -0.5
*EQUATION
3
1206, 1, 1.0, 628, 1, -0.5, 638, 1, -0.5
*EQUATION
3
1206, 2, 1.0, 628, 2, -0.5, 638, 2, -0.5
*EQUATION
3
1206, 3, 1.0, 628, 3, -0.5, 638, 3, -0.5
*EQUATION
3
1214, 1, 1.0, 596, 1, -0.5, 644, 1, -0.5
*EQUATION
3
1214, 2, 1.0, 596, 2, -0.5, 644, 2, -0.5
*EQUATION
3
1214, 3, 1.0, 596, 3, -0.5, 644, 3, -0.5
*EQUATION
5
1215, 1, 1.0, 596, 1, -0.25, 644, 1, -0.25, 646, 1, -0.25, 598, 1, -0.25
*EQUATION
5
1215, 2, 1.0, 596, 2, -0.25, 644, 2, -0.25, 646, 2, -0.25, 598, 2, -0.25
*EQUATION
5
1215, 3, 1.0, 596, 3, -0.25, 644, 3, -0.25, 646, 3, -0.25, 598, 3, -0.25
*EQUATION
3
1216, 1, 1.0, 598, 1, -0.5, 646, 1, -0.5
*EQUATION
3
1216, 2, 1.0, 598, 2, -0.5, 646, 2, -0.5
*EQUATION
3
1216, 3, 1.0, 598, 3, -0.5, 646, 3, -0.5
*EQUATION
3
1221, 1, 1.0, 644, 1, -0.5, 646, 1, -0.5
*EQUATION
3
1221, 2, 1.0, 644, 2, -0.5, 646, 2, -0.5
*EQUATION
3
1221, 3, 1.0, 644, 3, -0.5, 646, 3, -0.5
*EQUATION
5
1226, 1, 1.0, 598, 1, -0.25, 646, 1, -0.25, 648, 1, -0.25, 600, 1, -0.25
*EQUATION
5
1226, 2, 1.0, 598, 2, -0.25, 646, 2, -0.25, 648, 2, -0.25, 600, 2, -0.25
*EQUATION
5
1226, 3, 1.0, 598, 3, -0.25, 646, 3, -0.25, 648, 3, -0.25, 600, 3, -0.25
*EQUATION
3
1227, 1, 1.0, 600, 1, -0.5, 648, 1, -0.5
*EQUATION
3
1227, 2, 1.0, 600, 2, -0.5, 648, 2, -0.5
*EQUATION
3
1227, 3, 1.0, 600, 3, -0.5, 648, 3, -0.5
*EQUATION
3
1231, 1, 1.0, 646, 1, -0.5, 648, 1, -0.5
*EQUATION
3
1231, 2, 1.0, 646, 2, -0.5, 648, 2, -0.5
*EQUATION
3
1231, 3, 1.0, 646, 3, -0.5, 648, 3, -0.5
*EQUATION
3
1232, 1, 1.0, 619, 1, -0.5, 667, 1, -0.5
*EQUATION
3
1232, 2, 1.0, 619, 2, -0.5, 667, 2, -0.5
*EQUATION
3
1232, 3, 1.0, 619, 3, -0.5, 667, 3, -0.5
*EQUATION
5
1233, 1, 1.0, 619, 1, -0.25, 667, 1, -0.25, 668, 1, -0.25, 620, 1, -0.25
*EQUATION
5
1233, 2, 1.0, 619, 2, -0.25, 667, 2, -0.25, 668, 2, -0.25, 620, 2, -0.25
*EQUATION
5
1233, 3, 1.0, 619, 3, -0.25, 667, 3, -0.25, 668, 3, -0.25, 620, 3, -0.25
*EQUATION
3
1234, 1, 1.0, 620, 1, -0.5, 668, 1, -0.5
*EQUATION
3
1234, 2, 1.0, 620, 2, -0.5, 668, 2, -0.5
*EQUATION
3
1234, 3, 1.0, 620, 3, -0.5, 668, 3, -0.5
*EQUATION
3
1241, 1, 1.0, 667, 1, -0.5, 668, 1, -0.5
*EQUATION
3
1241, 2, 1.0, 667, 2, -0.5, 668, 2, -0.5
*EQUATION
3
1241, 3, 1.0, 667, 3, -0.5, 668, 3, -0.5
*EQUATION
5
1246, 1, 1.0, 620, 1, -0.25, 668, 1, -0.25, 669, 1, -0.25, 621, 1, -0.25
*EQUATION
5
1246, 2, 1.0, 620, 2, -0.25, 668, 2, -0.25, 669, 2, -0.25, 621, 2, -0.25
*EQUATION
5
1246, 3, 1.0, 620, 3, -0.25, 668, 3, -0.25, 669, 3, -0.25, 621, 3, -0.25
*EQUATION
3
1247, 1, 1.0, 621, 1, -0.5, 669, 1, -0.5
*EQUATION
3
1247, 2, 1.0, 621, 2, -0.5, 669, 2, -0.5
*EQUATION
3
1247, 3, 1.0, 621, 3, -0.5, 669, 3, -0.5
*EQUATION
3
1252, 1, 1.0, 668, 1, -0.5, 669, 1, -0.5
*EQUATION
3
1252, 2, 1.0, 668, 2, -0.5, 669, 2, -0.5
*EQUATION
3
1252, 3, 1.0, 668, 3, -0.5, 669, 3, -0.5
*EQUATION
3
1258, 1, 1.0, 627, 1, -0.5, 675, 1, -0.5
*EQUATION
3
1258, 2, 1.0, 627, 2, -0.5, 675, 2, -0.5
*EQUATION
3
1258, 3, 1.0, 627, 3, -0.5, 675, 3, -0.5
*EQUATION
5
1261, 1, 1.0, 627, 1, -0.25, 675, 1, -0.25, 676, 1, -0.25, 628, 1, -0.25
*EQUATION
5
1261, 2, 1.0, 627, 2, -0.25, 675, 2, -0.25, 676, 2, -0.25, 628, 2, -0.25
*EQUATION
5
1261, 3, 1.0, 627, 3, -0.25, 675, 3, -0.25, 676, 3, -0.25, 628, 3, -0.25
*EQUATION
3
1264, 1, 1.0, 628, 1, -0.5, 676, 1, -0.5
*EQUATION
3
1264, 2, 1.0, 628, 2, -0.5, 676, 2, -0.5
*EQUATION
3
1264, 3, 1.0, 628, 3, -0.5, 676, 3, -0.5
*EQUATION
3
1268, 1, 1.0, 675, 1, -0.5, 676, 1, -0.5
*EQUATION
3
1268, 2, 1.0, 675, 2, -0.5, 676, 2, -0.5
*EQUATION
3
1268, 3, 1.0, 675, 3, -0.5, 676, 3, -0.5
*EQUATION
5
1272, 1, 1.0, 628, 1, -0.25, 676, 1, -0.25, 686, 1, -0.25, 638, 1, -0.25
*EQUATION
5
1272, 2, 1.0, 628, 2, -0.25, 676, 2, -0.25, 686, 2, -0.25, 638, 2, -0.25
*EQUATION
5
1272, 3, 1.0, 628, 3, -0.25, 676, 3, -0.25, 686, 3, -0.25, 638, 3, -0.25
*EQUATION
3
1275, 1, 1.0, 638, 1, -0.5, 686, 1, -0.5
*EQUATION
3
1275, 2, 1.0, 638, 2, -0.5, 686, 2, -0.5
*EQUATION
3
1275, 3, 1.0, 638, 3, -0.5, 686, 3, -0.5
*EQUATION
3
1278, 1, 1.0, 676, 1, -0.5, 686, 1, -0.5
*EQUATION
3
1278, 2, 1.0, 676, 2, -0.5, 686, 2, -0.5
*EQUATION
3
1278, 3, 1.0, 676, 3, -0.5, 686, 3, -0.5
*EQUATION
3
1286, 1, 1.0, 644, 1, -0.5, 692, 1, -0.5
*EQUATION
3
1286, 2, 1.0, 644, 2, -0.5, 692, 2, -0.5
*EQUATION
3
1286, 3, 1.0, 644, 3, -0.5, 692, 3, -0.5
*EQUATION
5
1287, 1, 1.0, 644, 1, -0.25, 692, 1, -0.25, 694, 1, -0.25, 646, 1, -0.25
*EQUATION
5
1287, 2, 1.0, 644, 2, -0.25, 692, 2, -0.25, 694, 2, -0.25, 646, 2, -0.25
*EQUATION
5
1287, 3, 1.0, 644, 3, -0.25, 692, 3, -0.25, 694, 3, -0.25, 646, 3, -0.25
*EQUATION
3
1288, 1, 1.0, 646, 1, -0.5, 694, 1, -0.5
*EQUATION
3
1288, 2, 1.0, 646, 2, -0.5, 694, 2, -0.5
*EQUATION
3
1288, 3, 1.0, 646, 3, -0.5, 694, 3, -0.5
*EQUATION
3
1293, 1, 1.0, 692, 1, -0.5, 694, 1, -0.5
*EQUATION
3
1293, 2, 1.0, 692, 2, -0.5, 694, 2, -0.5
*EQUATION
3
1293, 3, 1.0, 692, 3, -0.5, 694, 3, -0.5
*EQUATION
5
1298, 1, 1.0, 646, 1, -0.25, 694, 1, -0.25, 696, 1, -0.25, 648, 1, -0.25
*EQUATION
5
1298, 2, 1.0, 646, 2, -0.25, 694, 2, -0.25, 696, 2, -0.25, 648, 2, -0.25
*EQUATION
5
1298, 3, 1.0, 646, 3, -0.25, 694, 3, -0.25, 696, 3, -0.25, 648, 3, -0.25
*EQUATION
3
1299, 1, 1.0, 648, 1, -0.5, 696, 1, -0.5
*EQUATION
3
1299, 2, 1.0, 648, 2, -0.5, 696, 2, -0.5
*EQUATION
3
1299, 3, 1.0, 648, 3, -0.5, 696, 3, -0.5
*EQUATION
3
1303, 1, 1.0, 694, 1, -0.5, 696, 1, -0.5
*EQUATION
3
1303, 2, 1.0, 694, 2, -0.5, 696, 2, -0.5
*EQUATION
3
1303, 3, 1.0, 694, 3, -0.5, 696, 3, -0.5
*EQUATION
3
1304, 1, 1.0, 667, 1, -0.5, 715, 1, -0.5
*EQUATION
3
1304, 2, 1.0, 667, 2, -0.5, 715, 2, -0.5
*EQUATION
3
1304, 3, 1.0, 667, 3, -0.5, 715, 3, -0.5
*EQUATION
5
1305, 1, 1.0, 667, 1, -0.25, 715, 1, -0.25, 716, 1, -0.25, 668, 1, -0.25
*EQUATION
5
1305, 2, 1.0, 667, 2, -0.25, 715, 2, -0.25, 716, 2, -0.25, 668, 2, -0.25
*EQUATION
5
1305, 3, 1.0, 667, 3, -0.25, 715, 3, -0.25, 716, 3, -0.25, 668, 3, -0.25
*EQUATION
3
1306, 1, 1.0, 668, 1, -0.5, 716, 1, -0.5
*EQUATION
3
1306, 2, 1.0, 668, 2, -0.5, 716, 2, -0.5
*EQUATION
3
1306, 3, 1.0, 668, 3, -0.5, 716, 3, -0.5
*EQUATION
3
1313, 1, 1.0, 715, 1, -0.5, 716, 1, -0.5
*EQUATION
3
1313, 2, 1.0, 715, 2, -0.5, 716, 2, -0.5
*EQUATION
3
1313, 3, 1.0, 715, 3, -0.5, 716, 3, -0.5
*EQUATION
5
1318, 1, 1.0, 668, 1, -0.25, 716, 1, -0.25, 717, 1, -0.25, 669, 1, -0.25
*EQUATION
5
1318, 2, 1.0, 668, 2, -0.25, 716, 2, -0.25, 717, 2, -0.25, 669, 2, -0.25
*EQUATION
5
1318, 3, 1.0, 668, 3, -0.25, 716, 3, -0.25, 717, 3, -0.25, 669, 3, -0.25
*EQUATION
3
1319, 1, 1.0, 669, 1, -0.5, 717, 1, -0.5
*EQUATION
3
1319, 2, 1.0, 669, 2, -0.5, 717, 2, -0.5
*EQUATION
3
1319, 3, 1.0, 669, 3, -0.5, 717, 3, -0.5
*EQUATION
3
1324, 1, 1.0, 716, 1, -0.5, 717, 1, -0.5
*EQUATION
3
1324, 2, 1.0, 716, 2, -0.5, 717, 2, -0.5
*EQUATION
3
1324, 3, 1.0, 716, 3, -0.5, 717, 3, -0.5
*EQUATION
3
1330, 1, 1.0, 675, 1, -0.5, 723, 1, -0.5
*EQUATION
3
1330, 2, 1.0, 675, 2, -0.5, 723, 2, -0.5
*EQUATION
3
1330, 3, 1.0, 675, 3, -0.5, 723, 3, -0.5
*EQUATION
5
1333, 1, 1.0, 675, 1, -0.25, 723, 1, -0.25, 724, 1, -0.25, 676, 1, -0.25
*EQUATION
5
1333, 2, 1.0, 675, 2, -0.25, 723, 2, -0.25, 724, 2, -0.25, 676, 2, -0.25
*EQUATION
5
1333, 3, 1.0, 675, 3, -0.25, 723, 3, -0.25, 724, 3, -0.25, 676, 3, -0.25
*EQUATION
3
1336, 1, 1.0, 676, 1, -0.5, 724, 1, -0.5
*EQUATION
3
1336, 2, 1.0, 676, 2, -0.5, 724, 2, -0.5
*EQUATION
3
1336, 3, 1.0, 676, 3, -0.5, 724, 3, -0.5
*EQUATION
3
1340, 1, 1.0, 723, 1, -0.5, 724, 1, -0.5
*EQUATION
3
1340, 2, 1.0, 723, 2, -0.5, 724, 2, -0.5
*EQUATION
3
1340, 3, 1.0, 723, 3, -0.5, 724, 3, -0.5
*EQUATION
3
1342, 1, 1.0, 681, 1, -0.5, 683, 1, -0.5
*EQUATION
3
1342, 2, 1.0, 681, 2, -0.5, 683, 2, -0.5
*EQUATION
3
1342, 3, 1.0, 681, 3, -0.5, 683, 3, -0.5
*EQUATION
3
1343, 1, 1.0, 681, 1, -0.5, 682, 1, -0.5
*EQUATION
3
1343, 2, 1.0, 681, 2, -0.5, 682, 2, -0.5
*EQUATION
3
1343, 3, 1.0, 681, 3, -0.5, 682, 3, -0.5
*EQUATION
5
1344, 1, 1.0, 681, 1, -0.25, 682, 1, -0.25, 684, 1, -0.25, 683, 1, -0.25
*EQUATION
5
1344, 2, 1.0, 681, 2, -0.25, 682, 2, -0.25, 684, 2, -0.25, 683, 2, -0.25
*EQUATION
5
1344, 3, 1.0, 681, 3, -0.25, 682, 3, -0.25, 684, 3, -0.25, 683, 3, -0.25
*EQUATION
3
1345, 1, 1.0, 683, 1, -0.5, 684, 1, -0.5
*EQUATION
3
1345, 2, 1.0, 683, 2, -0.5, 684, 2, -0.5
*EQUATION
3
1345, 3, 1.0, 683, 3, -0.5, 684, 3, -0.5
*EQUATION
3
1346, 1, 1.0, 682, 1, -0.5, 684, 1, -0.5
*EQUATION
3
1346, 2, 1.0, 682, 2, -0.5, 684, 2, -0.5
*EQUATION
3
1346, 3, 1.0, 682, 3, -0.5, 684, 3, -0.5
*EQUATION
3
1347, 1, 1.0, 681, 1, -0.5, 729, 1, -0.5
*EQUATION
3
1347, 2, 1.0, 681, 2, -0.5, 729, 2, -0.5
*EQUATION
3
1347, 3, 1.0, 681, 3, -0.5, 729, 3, -0.5
*EQUATION
3
1349, 1, 1.0, 683, 1, -0.5, 731, 1, -0.5
*EQUATION
3
1349, 2, 1.0, 683, 2, -0.5, 731, 2, -0.5
*EQUATION
3
1349, 3, 1.0, 683, 3, -0.5, 731, 3, -0.5
*EQUATION
5
1350, 1, 1.0, 681, 1, -0.25, 729, 1, -0.25, 730, 1, -0.25, 682, 1, -0.25
*EQUATION
5
1350, 2, 1.0, 681, 2, -0.25, 729, 2, -0.25, 730, 2, -0.25, 682, 2, -0.25
*EQUATION
5
1350, 3, 1.0, 681, 3, -0.25, 729, 3, -0.25, 730, 3, -0.25, 682, 3, -0.25
*EQUATION
5
1352, 1, 1.0, 683, 1, -0.25, 731, 1, -0.25, 732, 1, -0.25, 684, 1, -0.25
*EQUATION
5
1352, 2, 1.0, 683, 2, -0.25, 731, 2, -0.25, 732, 2, -0.25, 684, 2, -0.25
*EQUATION
5
1352, 3, 1.0, 683, 3, -0.25, 731, 3, -0.25, 732, 3, -0.25, 684, 3, -0.25
*EQUATION
3
1353, 1, 1.0, 682, 1, -0.5, 730, 1, -0.5
*EQUATION
3
1353, 2, 1.0, 682, 2, -0.5, 730, 2, -0.5
*EQUATION
3
1353, 3, 1.0, 682, 3, -0.5, 730, 3, -0.5
*EQUATION
5
1354, 1, 1.0, 682, 1, -0.25, 730, 1, -0.25, 732, 1, -0.25, 684, 1, -0.25
*EQUATION
5
1354, 2, 1.0, 682, 2, -0.25, 730, 2, -0.25, 732, 2, -0.25, 684, 2, -0.25
*EQUATION
5
1354, 3, 1.0, 682, 3, -0.25, 730, 3, -0.25, 732, 3, -0.25, 684, 3, -0.25
*EQUATION
3
1355, 1, 1.0, 684, 1, -0.5, 732, 1, -0.5
*EQUATION
3
1355, 2, 1.0, 684, 2, -0.5, 732, 2, -0.5
*EQUATION
3
1355, 3, 1.0, 684, 3, -0.5, 732, 3, -0.5
*EQUATION
3
1357, 1, 1.0, 729, 1, -0.5, 730, 1, -0.5
*EQUATION
3
1357, 2, 1.0, 729, 2, -0.5, 730, 2, -0.5
*EQUATION
3
1357, 3, 1.0, 729, 3, -0.5, 730, 3, -0.5
*EQUATION
3
1359, 1, 1.0, 731, 1, -0.5, 732, 1, -0.5
*EQUATION
3
1359, 2, 1.0, 731, 2, -0.5, 732, 2, -0.5
*EQUATION
3
1359, 3, 1.0, 731, 3, -0.5, 732, 3, -0.5
*EQUATION
3
1360, 1, 1.0, 730, 1, -0.5, 732, 1, -0.5
*EQUATION
3
1360, 2, 1.0, 730, 2, -0.5, 732, 2, -0.5
*EQUATION
3
1360, 3, 1.0, 730, 3, -0.5, 732, 3, -0.5
*EQUATION
5
1363, 1, 1.0, 676, 1, -0.25, 724, 1, -0.25, 734, 1, -0.25, 686, 1, -0.25
*EQUATION
5
1363, 2, 1.0, 676, 2, -0.25, 724, 2, -0.25, 734, 2, -0.25, 686, 2, -0.25
*EQUATION
5
1363, 3, 1.0, 676, 3, -0.25, 724, 3, -0.25, 734, 3, -0.25, 686, 3, -0.25
*EQUATION
3
1366, 1, 1.0, 686, 1, -0.5, 734, 1, -0.5
*EQUATION
3
1366, 2, 1.0, 686, 2, -0.5, 734, 2, -0.5
*EQUATION
3
1366, 3, 1.0, 686, 3, -0.5, 734, 3, -0.5
*EQUATION
3
1369, 1, 1.0, 724, 1, -0.5, 734, 1, -0.5
*EQUATION
3
1369, 2, 1.0, 724, 2, -0.5, 734, 2, -0.5
*EQUATION
3
1369, 3, 1.0, 724, 3, -0.5, 734, 3, -0.5
*EQUATION
3
1377, 1, 1.0, 692, 1, -0.5, 740, 1, -0.5
*EQUATION
3
1377, 2, 1.0, 692, 2, -0.5, 740, 2, -0.5
*EQUATION
3
1377, 3, 1.0, 692, 3, -0.5, 740, 3, -0.5
*EQUATION
5
1378, 1, 1.0, 692, 1, -0.25, 740, 1, -0.25, 742, 1, -0.25, 694, 1, -0.25
*EQUATION
5
1378, 2, 1.0, 692, 2, -0.25, 740, 2, -0.25, 742, 2, -0.25, 694, 2, -0.25
*EQUATION
5
1378, 3, 1.0, 692, 3, -0.25, 740, 3, -0.25, 742, 3, -0.25, 694, 3, -0.25
*EQUATION
3
1379, 1, 1.0, 694, 1, -0.5, 742, 1, -0.5
*EQUATION
3
1379, 2, 1.0, 694, 2, -0.5, 742, 2, -0.5
*EQUATION
3
1379, 3, 1.0, 694, 3, -0.5, 742, 3, -0.5
*EQUATION
3
1384, 1, 1.0, 740, 1, -0.5, 742, 1, -0.5
*EQUATION
3
1384, 2, 1.0, 740, 2, -0.5, 742, 2, -0.5
*EQUATION
3
1384, 3, 1.0, 740, 3, -0.5, 742, 3, -0.5
*EQUATION
5
1389, 1, 1.0, 694, 1, -0.25, 742, 1, -0.25, 744, 1, -0.25, 696, 1, -0.25
*EQUATION
5
1389, 2, 1.0, 694, 2, -0.25, 742, 2, -0.25, 744, 2, -0.25, 696, 2, -0.25
*EQUATION
5
1389, 3, 1.0, 694, 3, -0.25, 742, 3, -0.25, 744, 3, -0.25, 696, 3, -0.25
*EQUATION
3
1390, 1, 1.0, 696, 1, -0.5, 744, 1, -0.5
*EQUATION
3
1390, 2, 1.0, 696, 2, -0.5, 744, 2, -0.5
*EQUATION
3
1390, 3, 1.0, 696, 3, -0.5, 744, 3, -0.5
*EQUATION
3
1394, 1, 1.0, 742, 1, -0.5, 744, 1, -0.5
*EQUATION
3
1394, 2, 1.0, 742, 2, -0.5, 744, 2, -0.5
*EQUATION
3
1394, 3, 1.0, 742, 3, -0.5, 744, 3, -0.5
*EQUATION
3
1395, 1, 1.0, 715, 1, -0.5, 763, 1, -0.5
*EQUATION
3
1395, 2, 1.0, 715, 2, -0.5, 763, 2, -0.5
*EQUATION
3
1395, 3, 1.0, 715, 3, -0.5, 763, 3, -0.5
*EQUATION
5
1396, 1, 1.0, 715, 1, -0.25, 763, 1, -0.25, 764, 1, -0.25, 716, 1, -0.25
*EQUATION
5
1396, 2, 1.0, 715, 2, -0.25, 763, 2, -0.25, 764, 2, -0.25, 716, 2, -0.25
*EQUATION
5
1396, 3, 1.0, 715, 3, -0.25, 763, 3, -0.25, 764, 3, -0.25, 716, 3, -0.25
*EQUATION
3
1397, 1, 1.0, 716, 1, -0.5, 764, 1, -0.5
*EQUATION
3
1397, 2, 1.0, 716, 2, -0.5, 764, 2, -0.5
*EQUATION
3
1397, 3, 1.0, 716, 3, -0.5, 764, 3, -0.5
*EQUATION
3
1404, 1, 1.0, 763, 1, -0.5, 764, 1, -0.5
*EQUATION
3
1404, 2, 1.0, 763, 2, -0.5, 764, 2, -0.5
*EQUATION
3
1404, 3, 1.0, 763, 3, -0.5, 764, 3, -0.5
*EQUATION
5
1409, 1, 1.0, 716, 1, -0.25, 764, 1, -0.25, 765, 1, -0.25, 717, 1, -0.25
*EQUATION
5
1409, 2, 1.0, 716, 2, -0.25, 764, 2, -0.25, 765, 2, -0.25, 717, 2, -0.25
*EQUATION
5
1409, 3, 1.0, 716, 3, -0.25, 764, 3, -0.25, 765, 3, -0.25, 717, 3, -0.25
*EQUATION
3
1410, 1, 1.0, 717, 1, -0.5, 765, 1, -0.5
*EQUATION
3
1410, 2, 1.0, 717, 2, -0.5, 765, 2, -0.5
*EQUATION
3
1410, 3, 1.0, 717, 3, -0.5, 765, 3, -0.5
*EQUATION
3
1415, 1, 1.0, 764, 1, -0.5, 765, 1, -0.5
*EQUATION
3
1415, 2, 1.0, 764, 2, -0.5, 765, 2, -0.5
*EQUATION
3
1415, 3, 1.0, 764, 3, -0.5, 765, 3, -0.5
*EQUATION
3
1421, 1, 1.0, 723, 1, -0.5, 771, 1, -0.5
*EQUATION
3
1421, 2, 1.0, 723, 2, -0.5, 771, 2, -0.5
*EQUATION
3
1421, 3, 1.0, 723, 3, -0.5, 771, 3, -0.5
*EQUATION
5
1424, 1, 1.0, 723, 1, -0.25, 771, 1, -0.25, 772, 1, -0.25, 724, 1, -0.25
*EQUATION
5
1424, 2, 1.0, 723, 2, -0.25, 771, 2, -0.25, 772, 2, -0.25, 724, 2, -0.25
*EQUATION
5
1424, 3, 1.0, 723, 3, -0.25, 771, 3, -0.25, 772, 3, -0.25, 724, 3, -0.25
*EQUATION
3
1427, 1, 1.0, 724, 1, -0.5, 772, 1, -0.5
*EQUATION
3
1427, 2, 1.0, 724, 2, -0.5, 772, 2, -0.5
*EQUATION
3
1427, 3, 1.0, 724, 3, -0.5, 772, 3, -0.5
*EQUATION
3
1431, 1, 1.0, 771, 1, -0.5, 772, 1, -0.5
*EQUATION
3
1431, 2, 1.0, 771, 2, -0.5, 772, 2, -0.5
*EQUATION
3
1431, 3, 1.0, 771, 3, -0.5, 772, 3, -0.5
*EQUATION
3
1433, 1, 1.0, 729, 1, -0.5, 777, 1, -0.5
*EQUATION
3
1433, 2, 1.0, 729, 2, -0.5, 777, 2, -0.5
*EQUATION
3
1433, 3, 1.0, 729, 3, -0.5, 777, 3, -0.5
*EQUATION
3
1435, 1, 1.0, 731, 1, -0.5, 779, 1, -0.5
*EQUATION
3
1435, 2, 1.0, 731, 2, -0.5, 779, 2, -0.5
*EQUATION
3
1435, 3, 1.0, 731, 3, -0.5, 779, 3, -0.5
*EQUATION
5
1436, 1, 1.0, 729, 1, -0.25, 777, 1, -0.25, 778, 1, -0.25, 730, 1, -0.25
*EQUATION
5
1436, 2, 1.0, 729, 2, -0.25, 777, 2, -0.25, 778, 2, -0.25, 730, 2, -0.25
*EQUATION
5
1436, 3, 1.0, 729, 3, -0.25, 777, 3, -0.25, 778, 3, -0.25, 730, 3, -0.25
*EQUATION
5
1438, 1, 1.0, 731, 1, -0.25, 779, 1, -0.25, 780, 1, -0.25, 732, 1, -0.25
*EQUATION
5
1438, 2, 1.0, 731, 2, -0.25, 779, 2, -0.25, 780, 2, -0.25, 732, 2, -0.25
*EQUATION
5
1438, 3, 1.0, 731, 3, -0.25, 779, 3, -0.25, 780, 3, -0.25, 732, 3, -0.25
*EQUATION
3
1439, 1, 1.0, 730, 1, -0.5, 778, 1, -0.5
*EQUATION
3
1439, 2, 1.0, 730, 2, -0.5, 778, 2, -0.5
*EQUATION
3
1439, 3, 1.0, 730, 3, -0.5, 778, 3, -0.5
*EQUATION
5
1440, 1, 1.0, 730, 1, -0.25, 778, 1, -0.25, 780, 1, -0.25, 732, 1, -0.25
*EQUATION
5
1440, 2, 1.0, 730, 2, -0.25, 778, 2, -0.25, 780, 2, -0.25, 732, 2, -0.25
*EQUATION
5
1440, 3, 1.0, 730, 3, -0.25, 778, 3, -0.25, 780, 3, -0.25, 732, 3, -0.25
*EQUATION
3
1441, 1, 1.0, 732, 1, -0.5, 780, 1, -0.5
*EQUATION
3
1441, 2, 1.0, 732, 2, -0.5, 780, 2, -0.5
*EQUATION
3
1441, 3, 1.0, 732, 3, -0.5, 780, 3, -0.5
*EQUATION
3
1443, 1, 1.0, 777, 1, -0.5, 778, 1, -0.5
*EQUATION
3
1443, 2, 1.0, 777, 2, -0.5, 778, 2, -0.5
*EQUATION
3
1443, 3, 1.0, 777, 3, -0.5, 778, 3, -0.5
*EQUATION
3
1445, 1, 1.0, 779, 1, -0.5, 780, 1, -0.5
*EQUATION
3
1445, 2, 1.0, 779, 2, -0.5, 780, 2, -0.5
*EQUATION
3
1445, 3, 1.0, 779, 3, -0.5, 780, 3, -0.5
*EQUATION
3
1446, 1, 1.0, 778, 1, -0.5, 780, 1, -0.5
*EQUATION
3
1446, 2, 1.0, 778, 2, -0.5, 780, 2, -0.5
*EQUATION
3
1446, 3, 1.0, 778, 3, -0.5, 780, 3, -0.5
*EQUATION
5
1449, 1, 1.0, 724, 1, -0.25, 772, 1, -0.25, 782, 1, -0.25, 734, 1, -0.25
*EQUATION
5
1449, 2, 1.0, 724, 2, -0.25, 772, 2, -0.25, 782, 2, -0.25, 734, 2, -0.25
*EQUATION
5
1449, 3, 1.0, 724, 3, -0.25, 772, 3, -0.25, 782, 3, -0.25, 734, 3, -0.25
*EQUATION
3
1452, 1, 1.0, 734, 1, -0.5, 782, 1, -0.5
*EQUATION
3
1452, 2, 1.0, 734, 2, -0.5, 782, 2, -0.5
*EQUATION
3
1452, 3, 1.0, 734, 3, -0.5, 782, 3, -0.5
*EQUATION
3
1455, 1, 1.0, 772, 1, -0.5, 782, 1, -0.5
*EQUATION
3
1455, 2, 1.0, 772, 2, -0.5, 782, 2, -0.5
*EQUATION
3
1455, 3, 1.0, 772, 3, -0.5, 782, 3, -0.5
*EQUATION
3
1463, 1, 1.0, 740, 1, -0.5, 788, 1, -0.5
*EQUATION
3
1463, 2, 1.0, 740, 2, -0.5, 788, 2, -0.5
*EQUATION
3
1463, 3, 1.0, 740, 3, -0.5, 788, 3, -0.5
*EQUATION
5
1464, 1, 1.0, 740, 1, -0.25, 788, 1, -0.25, 790, 1, -0.25, 742, 1, -0.25
*EQUATION
5
1464, 2, 1.0, 740, 2, -0.25, 788, 2, -0.25, 790, 2, -0.25, 742, 2, -0.25
*EQUATION
5
1464, 3, 1.0, 740, 3, -0.25, 788, 3, -0.25, 790, 3, -0.25, 742, 3, -0.25
*EQUATION
3
1465, 1, 1.0, 742, 1, -0.5, 790, 1, -0.5
*EQUATION
3
1465, 2, 1.0, 742, 2, -0.5, 790, 2, -0.5
*EQUATION
3
1465, 3, 1.0, 742, 3, -0.5, 790, 3, -0.5
*EQUATION
3
1470, 1, 1.0, 788, 1, -0.5, 790, 1, -0.5
*EQUATION
3
1470, 2, 1.0, 788, 2, -0.5, 790, 2, -0.5
*EQUATION
3
1470, 3, 1.0, 788, 3, -0.5, 790, 3, -0.5
*EQUATION
5
1475, 1, 1.0, 742, 1, -0.25, 790, 1, -0.25, 792, 1, -0.25, 744, 1, -0.25
*EQUATION
5
1475, 2, 1.0, 742, 2, -0.25, 790, 2, -0.25, 792, 2, -0.25, 744, 2, -0.25
*EQUATION
5
1475, 3, 1.0, 742, 3, -0.25, 790, 3, -0.25, 792, 3, -0.25, 744, 3, -0.25
*EQUATION
3
1476, 1, 1.0, 744, 1, -0.5, 792, 1, -0.5
*EQUATION
3
1476, 2, 1.0, 744, 2, -0.5, 792, 2, -0.5
*EQUATION
3
1476, 3, 1.0, 744, 3, -0.5, 792, 3, -0.5
*EQUATION
3
1480, 1, 1.0, 790, 1, -0.5, 792, 1, -0.5
*EQUATION
3
1480, 2, 1.0, 790, 2, -0.5, 792, 2, -0.5
*EQUATION
3
1480, 3, 1.0, 790, 3, -0.5, 792, 3, -0.5
*EQUATION
3
1481, 1, 1.0, 755, 1, -0.5, 756, 1, -0.5
*EQUATION
3
1481, 2, 1.0, 755, 2, -0.5, 756, 2, -0.5
*EQUATION
3
1481, 3, 1.0, 755, 3, -0.5, 756, 3, -0.5
*EQUATION
3
1482, 1, 1.0, 755, 1, -0.5, 758, 1, -0.5
*EQUATION
3
1482, 2, 1.0, 755, 2, -0.5, 758, 2, -0.5
*EQUATION
3
1482, 3, 1.0, 755, 3, -0.5, 758, 3, -0.5
*EQUATION
5
1483, 1, 1.0, 755, 1, -0.25, 758, 1, -0.25, 759, 1, -0.25, 756, 1, -0.25
*EQUATION
5
1483, 2, 1.0, 755, 2, -0.25, 758, 2, -0.25, 759, 2, -0.25, 756, 2, -0.25
*EQUATION
5
1483, 3, 1.0, 755, 3, -0.25, 758, 3, -0.25, 759, 3, -0.25, 756, 3, -0.25
*EQUATION
3
1484, 1, 1.0, 756, 1, -0.5, 759, 1, -0.5
*EQUATION
3
1484, 2, 1.0, 756, 2, -0.5, 759, 2, -0.5
*EQUATION
3
1484, 3, 1.0, 756, 3, -0.5, 759, 3, -0.5
*EQUATION
3
1485, 1, 1.0, 758, 1, -0.5, 759, 1, -0.5
*EQUATION
3
1485, 2, 1.0, 758, 2, -0.5, 759, 2, -0.5
*EQUATION
3
1485, 3, 1.0, 758, 3, -0.5, 759, 3, -0.5
*EQUATION
3
1486, 1, 1.0, 755, 1, -0.5, 803, 1, -0.5
*EQUATION
3
1486, 2, 1.0, 755, 2, -0.5, 803, 2, -0.5
*EQUATION
3
1486, 3, 1.0, 755, 3, -0.5, 803, 3, -0.5
*EQUATION
5
1487, 1, 1.0, 755, 1, -0.25, 803, 1, -0.25, 804, 1, -0.25, 756, 1, -0.25
*EQUATION
5
1487, 2, 1.0, 755, 2, -0.25, 803, 2, -0.25, 804, 2, -0.25, 756, 2, -0.25
*EQUATION
5
1487, 3, 1.0, 755, 3, -0.25, 803, 3, -0.25, 804, 3, -0.25, 756, 3, -0.25
*EQUATION
3
1488, 1, 1.0, 756, 1, -0.5, 804, 1, -0.5
*EQUATION
3
1488, 2, 1.0, 756, 2, -0.5, 804, 2, -0.5
*EQUATION
3
1488, 3, 1.0, 756, 3, -0.5, 804, 3, -0.5
*EQUATION
5
1489, 1, 1.0, 755, 1, -0.25, 803, 1, -0.25, 806, 1, -0.25, 758, 1, -0.25
*EQUATION
5
1489, 2, 1.0, 755, 2, -0.25, 803, 2, -0.25, 806, 2, -0.25, 758, 2, -0.25
*EQUATION
5
1489, 3, 1.0, 755, 3, -0.25, 803, 3, -0.25, 806, 3, -0.25, 758, 3, -0.25
*EQUATION
3
1492, 1, 1.0, 758, 1, -0.5, 806, 1, -0.5
*EQUATION
3
1492, 2, 1.0, 758, 2, -0.5, 806, 2, -0.5
*EQUATION
3
1492, 3, 1.0, 758, 3, -0.5, 806, 3, -0.5
*EQUATION
5
1493, 1, 1.0, 758, 1, -0.25, 806, 1, -0.25, 807, 1, -0.25, 759, 1, -0.25
*EQUATION
5
1493, 2, 1.0, 758, 2, -0.25, 806, 2, -0.25, 807, 2, -0.25, 759, 2, -0.25
*EQUATION
5
1493, 3, 1.0, 758, 3, -0.25, 806, 3, -0.25, 807, 3, -0.25, 759, 3, -0.25
*EQUATION
3
1494, 1, 1.0, 759, 1, -0.5, 807, 1, -0.5
*EQUATION
3
1494, 2, 1.0, 759, 2, -0.5, 807, 2, -0.5
*EQUATION
3
1494, 3, 1.0, 759, 3, -0.5, 807, 3, -0.5
*EQUATION
3
1495, 1, 1.0, 803, 1, -0.5, 804, 1, -0.5
*EQUATION
3
1495, 2, 1.0, 803, 2, -0.5, 804, 2, -0.5
*EQUATION
3
1495, 3, 1.0, 803, 3, -0.5, 804, 3, -0.5
*EQUATION
3
1496, 1, 1.0, 803, 1, -0.5, 806, 1, -0.5
*EQUATION
3
1496, 2, 1.0, 803, 2, -0.5, 806, 2, -0.5
*EQUATION
3
1496, 3, 1.0, 803, 3, -0.5, 806, 3, -0.5
*EQUATION
3
1499, 1, 1.0, 806, 1, -0.5, 807, 1, -0.5
*EQUATION
3
1499, 2, 1.0, 806, 2, -0.5, 807, 2, -0.5
*EQUATION
3
1499, 3, 1.0, 806, 3, -0.5, 807, 3, -0.5
*EQUATION
3
1500, 1, 1.0, 763, 1, -0.5, 811, 1, -0.5
*EQUATION
3
1500, 2, 1.0, 763, 2, -0.5, 811, 2, -0.5
*EQUATION
3
1500, 3, 1.0, 763, 3, -0.5, 811, 3, -0.5
*EQUATION
5
1501, 1, 1.0, 763, 1, -0.25, 811, 1, -0.25, 812, 1, -0.25, 764, 1, -0.25
*EQUATION
5
1501, 2, 1.0, 763, 2, -0.25, 811, 2, -0.25, 812, 2, -0.25, 764, 2, -0.25
*EQUATION
5
1501, 3, 1.0, 763, 3, -0.25, 811, 3, -0.25, 812, 3, -0.25, 764, 3, -0.25
*EQUATION
3
1502, 1, 1.0, 764, 1, -0.5, 812, 1, -0.5
*EQUATION
3
1502, 2, 1.0, 764, 2, -0.5, 812, 2, -0.5
*EQUATION
3
1502, 3, 1.0, 764, 3, -0.5, 812, 3, -0.5
*EQUATION
3
1509, 1, 1.0, 811, 1, -0.5, 812, 1, -0.5
*EQUATION
3
1509, 2, 1.0, 811, 2, -0.5, 812, 2, -0.5
*EQUATION
3
1509, 3, 1.0, 811, 3, -0.5, 812, 3, -0.5
*EQUATION
5
1514, 1, 1.0, 764, 1, -0.25, 812, 1, -0.25, 813, 1, -0.25, 765, 1, -0.25
*EQUATION
5
1514, 2, 1.0, 764, 2, -0.25, 812, 2, -0.25, 813, 2, -0.25, 765, 2, -0.25
*EQUATION
5
1514, 3, 1.0, 764, 3, -0.25, 812, 3, -0.25, 813, 3, -0.25, 765, 3, -0.25
*EQUATION
3
1515, 1, 1.0, 765, 1, -0.5, 813, 1, -0.5
*EQUATION
3
1515, 2, 1.0, 765, 2, -0.5, 813, 2, -0.5
*EQUATION
3
1515, 3, 1.0, 765, 3, -0.5, 813, 3, -0.5
*EQUATION
3
1520, 1, 1.0, 812, 1, -0.5, 813, 1, -0.5
*EQUATION
3
1520, 2, 1.0, 812, 2, -0.5, 813, 2, -0.5
*EQUATION
3
1520, 3, 1.0, 812, 3, -0.5, 813, 3, -0.5
*EQUATION
3
1526, 1, 1.0, 771, 1, -0.5, 819, 1, -0.5
*EQUATION
3
1526, 2, 1.0, 771, 2, -0.5, 819, 2, -0.5
*EQUATION
3
1526, 3, 1.0, 771, 3, -0.5, 819, 3, -0.5
*EQUATION
5
1529, 1, 1.0, 771, 1, -0.25, 819, 1, -0.25, 820, 1, -0.25, 772, 1, -0.25
*EQUATION
5
1529, 2, 1.0, 771, 2, -0.25, 819, 2, -0.25, 820, 2, -0.25, 772, 2, -0.25
*EQUATION
5
1529, 3, 1.0, 771, 3, -0.25, 819, 3, -0.25, 820, 3, -0.25, 772, 3, -0.25
*EQUATION
3
1532, 1, 1.0, 772, 1, -0.5, 820, 1, -0.5
*EQUATION
3
1532, 2, 1.0, 772, 2, -0.5, 820, 2, -0.5
*EQUATION
3
1532, 3, 1.0, 772, 3, -0.5, 820, 3, -0.5
*EQUATION
3
1536, 1, 1.0, 819, 1, -0.5, 820, 1, -0.5
*EQUATION
3
1536, 2, 1.0, 819, 2, -0.5, 820, 2, -0.5
*EQUATION
3
1536, 3, 1.0, 819, 3, -0.5, 820, 3, -0.5
*EQUATION
3
1538, 1, 1.0, 777, 1, -0.5, 825, 1, -0.5
*EQUATION
3
1538, 2, 1.0, 777, 2, -0.5, 825, 2, -0.5
*EQUATION
3
1538, 3, 1.0, 777, 3, -0.5, 825, 3, -0.5
*EQUATION
3
1540, 1, 1.0, 779, 1, -0.5, 827, 1, -0.5
*EQUATION
3
1540, 2, 1.0, 779, 2, -0.5, 827, 2, -0.5
*EQUATION
3
1540, 3, 1.0, 779, 3, -0.5, 827, 3, -0.5
*EQUATION
5
1541, 1, 1.0, 777, 1, -0.25, 825, 1, -0.25, 826, 1, -0.25, 778, 1, -0.25
*EQUATION
5
1541, 2, 1.0, 777, 2, -0.25, 825, 2, -0.25, 826, 2, -0.25, 778, 2, -0.25
*EQUATION
5
1541, 3, 1.0, 777, 3, -0.25, 825, 3, -0.25, 826, 3, -0.25, 778, 3, -0.25
*EQUATION
5
1543, 1, 1.0, 779, 1, -0.25, 827, 1, -0.25, 828, 1, -0.25, 780, 1, -0.25
*EQUATION
5
1543, 2, 1.0, 779, 2, -0.25, 827, 2, -0.25, 828, 2, -0.25, 780, 2, -0.25
*EQUATION
5
1543, 3, 1.0, 779, 3, -0.25, 827, 3, -0.25, 828, 3, -0.25, 780, 3, -0.25
*EQUATION
3
1544, 1, 1.0, 778, 1, -0.5, 826, 1, -0.5
*EQUATION
3
1544, 2, 1.0, 778, 2, -0.5, 826, 2, -0.5
*EQUATION
3
1544, 3, 1.0, 778, 3, -0.5, 826, 3, -0.5
*EQUATION
5
1545, 1, 1.0, 778, 1, -0.25, 826, 1, -0.25, 828, 1, -0.25, 780, 1, -0.25
*EQUATION
5
1545, 2, 1.0, 778, 2, -0.25, 826, 2, -0.25, 828, 2, -0.25, 780, 2, -0.25
*EQUATION
5
1545, 3, 1.0, 778, 3, -0.25, 826, 3, -0.25, 828, 3, -0.25, 780, 3, -0.25
*EQUATION
3
1546, 1, 1.0, 780, 1, -0.5, 828, 1, -0.5
*EQUATION
3
1546, 2, 1.0, 780, 2, -0.5, 828, 2, -0.5
*EQUATION
3
1546, 3, 1.0, 780, 3, -0.5, 828, 3, -0.5
*EQUATION
3
1548, 1, 1.0, 825, 1, -0.5, 826, 1, -0.5
*EQUATION
3
1548, 2, 1.0, 825, 2, -0.5, 826, 2, -0.5
*EQUATION
3
1548, 3, 1.0, 825, 3, -0.5, 826, 3, -0.5
*EQUATION
3
1550, 1, 1.0, 827, 1, -0.5, 828, 1, -0.5
*EQUATION
3
1550, 2, 1.0, 827, 2, -0.5, 828, 2, -0.5
*EQUATION
3
1550, 3, 1.0, 827, 3, -0.5, 828, 3, -0.5
*EQUATION
3
1551, 1, 1.0, 826, 1, -0.5, 828, 1, -0.5
*EQUATION
3
1551, 2, 1.0, 826, 2, -0.5, 828, 2, -0.5
*EQUATION
3
1551, 3, 1.0, 826, 3, -0.5, 828, 3, -0.5
*EQUATION
5
1554, 1, 1.0, 772, 1, -0.25, 820, 1, -0.25, 830, 1, -0.25, 782, 1, -0.25
*EQUATION
5
1554, 2, 1.0, 772, 2, -0.25, 820, 2, -0.25, 830, 2, -0.25, 782, 2, -0.25
*EQUATION
5
1554, 3, 1.0, 772, 3, -0.25, 820, 3, -0.25, 830, 3, -0.25, 782, 3, -0.25
*EQUATION
3
1557, 1, 1.0, 782, 1, -0.5, 830, 1, -0.5
*EQUATION
3
1557, 2, 1.0, 782, 2, -0.5, 830, 2, -0.5
*EQUATION
3
1557, 3, 1.0, 782, 3, -0.5, 830, 3, -0.5
*EQUATION
3
1560, 1, 1.0, 820, 1, -0.5, 830, 1, -0.5
*EQUATION
3
1560, 2, 1.0, 820, 2, -0.5, 830, 2, -0.5
*EQUATION
3
1560, 3, 1.0, 820, 3, -0.5, 830, 3, -0.5
*EQUATION
3
1568, 1, 1.0, 788, 1, -0.5, 836, 1, -0.5
*EQUATION
3
1568, 2, 1.0, 788, 2, -0.5, 836, 2, -0.5
*EQUATION
3
1568, 3, 1.0, 788, 3, -0.5, 836, 3, -0.5
*EQUATION
5
1569, 1, 1.0, 788, 1, -0.25, 836, 1, -0.25, 838, 1, -0.25, 790, 1, -0.25
*EQUATION
5
1569, 2, 1.0, 788, 2, -0.25, 836, 2, -0.25, 838, 2, -0.25, 790, 2, -0.25
*EQUATION
5
1569, 3, 1.0, 788, 3, -0.25, 836, 3, -0.25, 838, 3, -0.25, 790, 3, -0.25
*EQUATION
3
1570, 1, 1.0, 790, 1, -0.5, 838, 1, -0.5
*EQUATION
3
1570, 2, 1.0, 790, 2, -0.5, 838, 2, -0.5
*EQUATION
3
1570, 3, 1.0, 790, 3, -0.5, 838, 3, -0.5
*EQUATION
3
1575, 1, 1.0, 836, 1, -0.5, 838, 1, -0.5
*EQUATION
3
1575, 2, 1.0, 836, 2, -0.5, 838, 2, -0.5
*EQUATION
3
1575, 3, 1.0, 836, 3, -0.5, 838, 3, -0.5
*EQUATION
5
1580, 1, 1.0, 790, 1, -0.25, 838, 1, -0.25, 840, 1, -0.25, 792, 1, -0.25
*EQUATION
5
1580, 2, 1.0, 790, 2, -0.25, 838, 2, -0.25, 840, 2, -0.25, 792, 2, -0.25
*EQUATION
5
1580, 3, 1.0, 790, 3, -0.25, 838, 3, -0.25, 840, 3, -0.25, 792, 3, -0.25
*EQUATION
3
1581, 1, 1.0, 792, 1, -0.5, 840, 1, -0.5
*EQUATION
3
1581, 2, 1.0, 792, 2, -0.5, 840, 2, -0.5
*EQUATION
3
1581, 3, 1.0, 792, 3, -0.5, 840, 3, -0.5
*EQUATION
3
1585, 1, 1.0, 838, 1, -0.5, 840, 1, -0.5
*EQUATION
3
1585, 2, 1.0, 838, 2, -0.5, 840, 2, -0.5
*EQUATION
3
1585, 3, 1.0, 838, 3, -0.5, 840, 3, -0.5
*EQUATION
3
1586, 1, 1.0, 803, 1, -0.5, 851, 1, -0.5
*EQUATION
3
1586, 2, 1.0, 803, 2, -0.5, 851, 2, -0.5
*EQUATION
3
1586, 3, 1.0, 803, 3, -0.5, 851, 3, -0.5
*EQUATION
5
1587, 1, 1.0, 803, 1, -0.25, 851, 1, -0.25, 852, 1, -0.25, 804, 1, -0.25
*EQUATION
5
1587, 2, 1.0, 803, 2, -0.25, 851, 2, -0.25, 852, 2, -0.25, 804, 2, -0.25
*EQUATION
5
1587, 3, 1.0, 803, 3, -0.25, 851, 3, -0.25, 852, 3, -0.25, 804, 3, -0.25
*EQUATION
3
1588, 1, 1.0, 804, 1, -0.5, 852, 1, -0.5
*EQUATION
3
1588, 2, 1.0, 804, 2, -0.5, 852, 2, -0.5
*EQUATION
3
1588, 3, 1.0, 804, 3, -0.5, 852, 3, -0.5
*EQUATION
5
1589, 1, 1.0, 803, 1, -0.25, 851, 1, -0.25, 854, 1, -0.25, 806, 1, -0.25
*EQUATION
5
1589, 2, 1.0, 803, 2, -0.25, 851, 2, -0.25, 854, 2, -0.25, 806, 2, -0.25
*EQUATION
5
1589, 3, 1.0, 803, 3, -0.25, 851, 3, -0.25, 854, 3, -0.25, 806, 3, -0.25
*EQUATION
3
1592, 1, 1.0, 806, 1, -0.5, 854, 1, -0.5
*EQUATION
3
1592, 2, 1.0, 806, 2, -0.5, 854, 2, -0.5
*EQUATION
3
1592, 3, 1.0, 806, 3, -0.5, 854, 3, -0.5
*EQUATION
5
1593, 1, 1.0, 806, 1, -0.25, 854, 1, -0.25, 855, 1, -0.25, 807, 1, -0.25
*EQUATION
5
1593, 2, 1.0, 806, 2, -0.25, 854, 2, -0.25, 855, 2, -0.25, 807, 2, -0.25
*EQUATION
5
1593, 3, 1.0, 806, 3, -0.25, 854, 3, -0.25, 855, 3, -0.25, 807, 3, -0.25
*EQUATION
3
1594, 1, 1.0, 807, 1, -0.5, 855, 1, -0.5
*EQUATION
3
1594, 2, 1.0, 807, 2, -0.5, 855, 2, -0.5
*EQUATION
3
1594, 3, 1.0, 807, 3, -0.5, 855, 3, -0.5
*EQUATION
3
1595, 1, 1.0, 851, 1, -0.5, 852, 1, -0.5
*EQUATION
3
1595, 2, 1.0, 851, 2, -0.5, 852, 2, -0.5
*EQUATION
3
1595, 3, 1.0, 851, 3, -0.5, 852, 3, -0.5
*EQUATION
3
1596, 1, 1.0, 851, 1, -0.5, 854, 1, -0.5
*EQUATION
3
1596, 2, 1.0, 851, 2, -0.5, 854, 2, -0.5
*EQUATION
3
1596, 3, 1.0, 851, 3, -0.5, 854, 3, -0.5
*EQUATION
5
1597, 1, 1.0, 851, 1, -0.25, 854, 1, -0.25, 855, 1, -0.25, 852, 1, -0.25
*EQUATION
5
1597, 2, 1.0, 851, 2, -0.25, 854, 2, -0.25, 855, 2, -0.25, 852, 2, -0.25
*EQUATION
5
1597, 3, 1.0, 851, 3, -0.25, 854, 3, -0.25, 855, 3, -0.25, 852, 3, -0.25
*EQUATION
3
1598, 1, 1.0, 852, 1, -0.5, 855, 1, -0.5
*EQUATION
3
1598, 2, 1.0, 852, 2, -0.5, 855, 2, -0.5
*EQUATION
3
1598, 3, 1.0, 852, 3, -0.5, 855, 3, -0.5
*EQUATION
3
1599, 1, 1.0, 854, 1, -0.5, 855, 1, -0.5
*EQUATION
3
1599, 2, 1.0, 854, 2, -0.5, 855, 2, -0.5
*EQUATION
3
1599, 3, 1.0, 854, 3, -0.5, 855, 3, -0.5
*EQUATION
3
1600, 1, 1.0, 811, 1, -0.5, 859, 1, -0.5
*EQUATION
3
1600, 2, 1.0, 811, 2, -0.5, 859, 2, -0.5
*EQUATION
3
1600, 3, 1.0, 811, 3, -0.5, 859, 3, -0.5
*EQUATION
5
1601, 1, 1.0, 811, 1, -0.25, 859, 1, -0.25, 860, 1, -0.25, 812, 1, -0.25
*EQUATION
5
1601, 2, 1.0, 811, 2, -0.25, 859, 2, -0.25, 860, 2, -0.25, 812, 2, -0.25
*EQUATION
5
1601, 3, 1.0, 811, 3, -0.25, 859, 3, -0.25, 860, 3, -0.25, 812, 3, -0.25
*EQUATION
3
1602, 1, 1.0, 812, 1, -0.5, 860, 1, -0.5
*EQUATION
3
1602, 2, 1.0, 812, 2, -0.5, 860, 2, -0.5
*EQUATION
3
1602, 3, 1.0, 812, 3, -0.5, 860, 3, -0.5
*EQUATION
3
1609, 1, 1.0, 859, 1, -0.5, 860, 1, -0.5
*EQUATION
3
1609, 2, 1.0, 859, 2, -0.5, 860, 2, -0.5
*EQUATION
3
1609, 3, 1.0, 859, 3, -0.5, 860, 3, -0.5
*EQUATION
5
1614, 1, 1.0, 812, 1, -0.25, 860, 1, -0.25, 861, 1, -0.25, 813, 1, -0.25
*EQUATION
5
1614, 2, 1.0, 812, 2, -0.25, 860, 2, -0.25, 861, 2, -0.25, 813, 2, -0.25
*EQUATION
5
1614, 3, 1.0, 812, 3, -0.25, 860, 3, -0.25, 861, 3, -0.25, 813, 3, -0.25
*EQUATION
3
1615, 1, 1.0, 813, 1, -0.5, 861, 1, -0.5
*EQUATION
3
1615, 2, 1.0, 813, 2, -0.5, 861, 2, -0.5
*EQUATION
3
1615, 3, 1.0, 813, 3, -0.5, 861, 3, -0.5
*EQUATION
3
1620, 1, 1.0, 860, 1, -0.5, 861, 1, -0.5
*EQUATION
3
1620, 2, 1.0, 860, 2, -0.5, 861, 2, -0.5
*EQUATION
3
1620, 3, 1.0, 860, 3, -0.5, 861, 3, -0.5
*EQUATION
3
1626, 1, 1.0, 819, 1, -0.5, 867, 1, -0.5
*EQUATION
3
1626, 2, 1.0, 819, 2, -0.5, 867, 2, -0.5
*EQUATION
3
1626, 3, 1.0, 819, 3, -0.5, 867, 3, -0.5
*EQUATION
5
1629, 1, 1.0, 819, 1, -0.25, 867, 1, -0.25, 868, 1, -0.25, 820, 1, -0.25
*EQUATION
5
1629, 2, 1.0, 819, 2, -0.25, 867, 2, -0.25, 868, 2, -0.25, 820, 2, -0.25
*EQUATION
5
1629, 3, 1.0, 819, 3, -0.25, 867, 3, -0.25, 868, 3, -0.25, 820, 3, -0.25
*EQUATION
3
1632, 1, 1.0, 820, 1, -0.5, 868, 1, -0.5
*EQUATION
3
1632, 2, 1.0, 820, 2, -0.5, 868, 2, -0.5
*EQUATION
3
1632, 3, 1.0, 820, 3, -0.5, 868, 3, -0.5
*EQUATION
3
1636, 1, 1.0, 867, 1, -0.5, 868, 1, -0.5
*EQUATION
3
1636, 2, 1.0, 867, 2, -0.5, 868, 2, -0.5
*EQUATION
3
1636, 3, 1.0, 867, 3, -0.5, 868, 3, -0.5
*EQUATION
3
1638, 1, 1.0, 825, 1, -0.5, 873, 1, -0.5
*EQUATION
3
1638, 2, 1.0, 825, 2, -0.5, 873, 2, -0.5
*EQUATION
3
1638, 3, 1.0, 825, 3, -0.5, 873, 3, -0.5
*EQUATION
3
1640, 1, 1.0, 827, 1, -0.5, 875, 1, -0.5
*EQUATION
3
1640, 2, 1.0, 827, 2, -0.5, 875, 2, -0.5
*EQUATION
3
1640, 3, 1.0, 827, 3, -0.5, 875, 3, -0.5
*EQUATION
5
1641, 1, 1.0, 825, 1, -0.25, 873, 1, -0.25, 874, 1, -0.25, 826, 1, -0.25
*EQUATION
5
1641, 2, 1.0, 825, 2, -0.25, 873, 2, -0.25, 874, 2, -0.25, 826, 2, -0.25
*EQUATION
5
1641, 3, 1.0, 825, 3, -0.25, 873, 3, -0.25, 874, 3, -0.25, 826, 3, -0.25
*EQUATION
5
1643, 1, 1.0, 827, 1, -0.25, 875, 1, -0.25, 876, 1, -0.25, 828, 1, -0.25
*EQUATION
5
1643, 2, 1.0, 827, 2, -0.25, 875, 2, -0.25, 876, 2, -0.25, 828, 2, -0.25
*EQUATION
5
1643, 3, 1.0, 827, 3, -0.25, 875, 3, -0.25, 876, 3, -0.25, 828, 3, -0.25
*EQUATION
3
1644, 1, 1.0, 826, 1, -0.5, 874, 1, -0.5
*EQUATION
3
1644, 2, 1.0, 826, 2, -0.5, 874, 2, -0.5
*EQUATION
3
1644, 3, 1.0, 826, 3, -0.5, 874, 3, -0.5
*EQUATION
3
1646, 1, 1.0, 828, 1, -0.5, 876, 1, -0.5
*EQUATION
3
1646, 2, 1.0, 828, 2, -0.5, 876, 2, -0.5
*EQUATION
3
1646, 3, 1.0, 828, 3, -0.5, 876, 3, -0.5
*EQUATION
3
1648, 1, 1.0, 873, 1, -0.5, 874, 1, -0.5
*EQUATION
3
1648, 2, 1.0, 873, 2, -0.5, 874, 2, -0.5
*EQUATION
3
1648, 3, 1.0, 873, 3, -0.5, 874, 3, -0.5
*EQUATION
3
1650, 1, 1.0, 875, 1, -0.5, 876, 1, -0.5
*EQUATION
3
1650, 2, 1.0, 875, 2, -0.5, 876, 2, -0.5
*EQUATION
3
1650, 3, 1.0, 875, 3, -0.5, 876, 3, -0.5
*EQUATION
5
1654, 1, 1.0, 820, 1, -0.25, 868, 1, -0.25, 878, 1, -0.25, 830, 1, -0.25
*EQUATION
5
1654, 2, 1.0, 820, 2, -0.25, 868, 2, -0.25, 878, 2, -0.25, 830, 2, -0.25
*EQUATION
5
1654, 3, 1.0, 820, 3, -0.25, 868, 3, -0.25, 878, 3, -0.25, 830, 3, -0.25
*EQUATION
3
1657, 1, 1.0, 830, 1, -0.5, 878, 1, -0.5
*EQUATION
3
1657, 2, 1.0, 830, 2, -0.5, 878, 2, -0.5
*EQUATION
3
1657, 3, 1.0, 830, 3, -0.5, 878, 3, -0.5
*EQUATION
3
1660, 1, 1.0, 868, 1, -0.5, 878, 1, -0.5
*EQUATION
3
1660, 2, 1.0, 868, 2, -0.5, 878, 2, -0.5
*EQUATION
3
1660, 3, 1.0, 868, 3, -0.5, 878, 3, -0.5
*EQUATION
3
1662, 1, 1.0, 826, 1, -0.5, 833, 1, -0.5
*EQUATION
3
1662, 2, 1.0, 826, 2, -0.5, 833, 2, -0.5
*EQUATION
3
1662, 3, 1.0, 826, 3, -0.5, 833, 3, -0.5
*EQUATION
5
1663, 1, 1.0, 826, 1, -0.25, 833, 1, -0.25, 834, 1, -0.25, 828, 1, -0.25
*EQUATION
5
1663, 2, 1.0, 826, 2, -0.25, 833, 2, -0.25, 834, 2, -0.25, 828, 2, -0.25
*EQUATION
5
1663, 3, 1.0, 826, 3, -0.25, 833, 3, -0.25, 834, 3, -0.25, 828, 3, -0.25
*EQUATION
3
1664, 1, 1.0, 828, 1, -0.5, 834, 1, -0.5
*EQUATION
3
1664, 2, 1.0, 828, 2, -0.5, 834, 2, -0.5
*EQUATION
3
1664, 3, 1.0, 828, 3, -0.5, 834, 3, -0.5
*EQUATION
3
1665, 1, 1.0, 833, 1, -0.5, 834, 1, -0.5
*EQUATION
3
1665, 2, 1.0, 833, 2, -0.5, 834, 2, -0.5
*EQUATION
3
1665, 3, 1.0, 833, 3, -0.5, 834, 3, -0.5
*EQUATION
5
1666, 1, 1.0, 826, 1, -0.25, 874, 1, -0.25, 881, 1, -0.25, 833, 1, -0.25
*EQUATION
5
1666, 2, 1.0, 826, 2, -0.25, 874, 2, -0.25, 881, 2, -0.25, 833, 2, -0.25
*EQUATION
5
1666, 3, 1.0, 826, 3, -0.25, 874, 3, -0.25, 881, 3, -0.25, 833, 3, -0.25
*EQUATION
5
1668, 1, 1.0, 828, 1, -0.25, 876, 1, -0.25, 882, 1, -0.25, 834, 1, -0.25
*EQUATION
5
1668, 2, 1.0, 828, 2, -0.25, 876, 2, -0.25, 882, 2, -0.25, 834, 2, -0.25
*EQUATION
5
1668, 3, 1.0, 828, 3, -0.25, 876, 3, -0.25, 882, 3, -0.25, 834, 3, -0.25
*EQUATION
3
1669, 1, 1.0, 833, 1, -0.5, 881, 1, -0.5
*EQUATION
3
1669, 2, 1.0, 833, 2, -0.5, 881, 2, -0.5
*EQUATION
3
1669, 3, 1.0, 833, 3, -0.5, 881, 3, -0.5
*EQUATION
3
1671, 1, 1.0, 834, 1, -0.5, 882, 1, -0.5
*EQUATION
3
1671, 2, 1.0, 834, 2, -0.5, 882, 2, -0.5
*EQUATION
3
1671, 3, 1.0, 834, 3, -0.5, 882, 3, -0.5
*EQUATION
3
1672, 1, 1.0, 874, 1, -0.5, 881, 1, -0.5
*EQUATION
3
1672, 2, 1.0, 874, 2, -0.5, 881, 2, -0.5
*EQUATION
3
1672, 3, 1.0, 874, 3, -0.5, 881, 3, -0.5
*EQUATION
3
1674, 1, 1.0, 876, 1, -0.5, 882, 1, -0.5
*EQUATION
3
1674, 2, 1.0, 876, 2, -0.5, 882, 2, -0.5
*EQUATION
3
1674, 3, 1.0, 876, 3, -0.5, 882, 3, -0.5
*EQUATION
3
1682, 1, 1.0, 836, 1, -0.5, 884, 1, -0.5
*EQUATION
3
1682, 2, 1.0, 836, 2, -0.5, 884, 2, -0.5
*EQUATION
3
1682, 3, 1.0, 836, 3, -0.5, 884, 3, -0.5
*EQUATION
5
1683, 1, 1.0, 836, 1, -0.25, 884, 1, -0.25, 886, 1, -0.25, 838, 1, -0.25
*EQUATION
5
1683, 2, 1.0, 836, 2, -0.25, 884, 2, -0.25, 886, 2, -0.25, 838, 2, -0.25
*EQUATION
5
1683, 3, 1.0, 836, 3, -0.25, 884, 3, -0.25, 886, 3, -0.25, 838, 3, -0.25
*EQUATION
3
1684, 1, 1.0, 838, 1, -0.5, 886, 1, -0.5
*EQUATION
3
1684, 2, 1.0, 838, 2, -0.5, 886, 2, -0.5
*EQUATION
3
1684, 3, 1.0, 838, 3, -0.5, 886, 3, -0.5
*EQUATION
3
1689, 1, 1.0, 884, 1, -0.5, 886, 1, -0.5
*EQUATION
3
1689, 2, 1.0, 884, 2, -0.5, 886, 2, -0.5
*EQUATION
3
1689, 3, 1.0, 884, 3, -0.5, 886, 3, -0.5
*EQUATION
5
1694, 1, 1.0, 838, 1, -0.25, 886, 1, -0.25, 888, 1, -0.25, 840, 1, -0.25
*EQUATION
5
1694, 2, 1.0, 838, 2, -0.25, 886, 2, -0.25, 888, 2, -0.25, 840, 2, -0.25
*EQUATION
5
1694, 3, 1.0, 838, 3, -0.25, 886, 3, -0.25, 888, 3, -0.25, 840, 3, -0.25
*EQUATION
3
1695, 1, 1.0, 840, 1, -0.5, 888, 1, -0.5
*EQUATION
3
1695, 2, 1.0, 840, 2, -0.5, 888, 2, -0.5
*EQUATION
3
1695, 3, 1.0, 840, 3, -0.5, 888, 3, -0.5
*EQUATION
3
1699, 1, 1.0, 886, 1, -0.5, 888, 1, -0.5
*EQUATION
3
1699, 2, 1.0, 886, 2, -0.5, 888, 2, -0.5
*EQUATION
3
1699, 3, 1.0, 886, 3, -0.5, 888, 3, -0.5
*EQUATION
3
1700, 1, 1.0, 844, 1, -0.5, 845, 1, -0.5
*EQUATION
3
1700, 2, 1.0, 844, 2, -0.5, 845, 2, -0.5
*EQUATION
3
1700, 3, 1.0, 844, 3, -0.5, 845, 3, -0.5
*EQUATION
3
1701, 1, 1.0, 827, 1, -0.5, 844, 1, -0.5
*EQUATION
3
1701, 2, 1.0, 827, 2, -0.5, 844, 2, -0.5
*EQUATION
3
1701, 3, 1.0, 827, 3, -0.5, 844, 3, -0.5
*EQUATION
5
1702, 1, 1.0, 844, 1, -0.25, 827, 1, -0.25, 847, 1, -0.25, 845, 1, -0.25
*EQUATION
5
1702, 2, 1.0, 844, 2, -0.25, 827, 2, -0.25, 847, 2, -0.25, 845, 2, -0.25
*EQUATION
5
1702, 3, 1.0, 844, 3, -0.25, 827, 3, -0.25, 847, 3, -0.25, 845, 3, -0.25
*EQUATION
3
1703, 1, 1.0, 845, 1, -0.5, 847, 1, -0.5
*EQUATION
3
1703, 2, 1.0, 845, 2, -0.5, 847, 2, -0.5
*EQUATION
3
1703, 3, 1.0, 845, 3, -0.5, 847, 3, -0.5
*EQUATION
3
1704, 1, 1.0, 827, 1, -0.5, 847, 1, -0.5
*EQUATION
3
1704, 2, 1.0, 827, 2, -0.5, 847, 2, -0.5
*EQUATION
3
1704, 3, 1.0, 827, 3, -0.5, 847, 3, -0.5
*EQUATION
3
1705, 1, 1.0, 844, 1, -0.5, 892, 1, -0.5
*EQUATION
3
1705, 2, 1.0, 844, 2, -0.5, 892, 2, -0.5
*EQUATION
3
1705, 3, 1.0, 844, 3, -0.5, 892, 3, -0.5
*EQUATION
5
1706, 1, 1.0, 844, 1, -0.25, 892, 1, -0.25, 893, 1, -0.25, 845, 1, -0.25
*EQUATION
5
1706, 2, 1.0, 844, 2, -0.25, 892, 2, -0.25, 893, 2, -0.25, 845, 2, -0.25
*EQUATION
5
1706, 3, 1.0, 844, 3, -0.25, 892, 3, -0.25, 893, 3, -0.25, 845, 3, -0.25
*EQUATION
3
1707, 1, 1.0, 845, 1, -0.5, 893, 1, -0.5
*EQUATION
3
1707, 2, 1.0, 845, 2, -0.5, 893, 2, -0.5
*EQUATION
3
1707, 3, 1.0, 845, 3, -0.5, 893, 3, -0.5
*EQUATION
5
1711, 1, 1.0, 827, 1, -0.25, 875, 1, -0.25, 895, 1, -0.25, 847, 1, -0.25
*EQUATION
5
1711, 2, 1.0, 827, 2, -0.25, 875, 2, -0.25, 895, 2, -0.25, 847, 2, -0.25
*EQUATION
5
1711, 3, 1.0, 827, 3, -0.25, 875, 3, -0.25, 895, 3, -0.25, 847, 3, -0.25
*EQUATION
3
1712, 1, 1.0, 847, 1, -0.5, 895, 1, -0.5
*EQUATION
3
1712, 2, 1.0, 847, 2, -0.5, 895, 2, -0.5
*EQUATION
3
1712, 3, 1.0, 847, 3, -0.5, 895, 3, -0.5
*EQUATION
3
1713, 1, 1.0, 892, 1, -0.5, 893, 1, -0.5
*EQUATION
3
1713, 2, 1.0, 892, 2, -0.5, 893, 2, -0.5
*EQUATION
3
1713, 3, 1.0, 892, 3, -0.5, 893, 3, -0.5
*EQUATION
3
1717, 1, 1.0, 875, 1, -0.5, 895, 1, -0.5
*EQUATION
3
1717, 2, 1.0, 875, 2, -0.5, 895, 2, -0.5
*EQUATION
3
1717, 3, 1.0, 875, 3, -0.5, 895, 3, -0.5
*EQUATION
3
1718, 1, 1.0, 845, 1, -0.5, 846, 1, -0.5
*EQUATION
3
1718, 2, 1.0, 845, 2, -0.5, 846, 2, -0.5
*EQUATION
3
1718, 3, 1.0, 845, 3, -0.5, 846, 3, -0.5
*EQUATION
5
1719, 1, 1.0, 845, 1, -0.25, 847, 1, -0.25, 848, 1, -0.25, 846, 1, -0.25
*EQUATION
5
1719, 2, 1.0, 845, 2, -0.25, 847, 2, -0.25, 848, 2, -0.25, 846, 2, -0.25
*EQUATION
5
1719, 3, 1.0, 845, 3, -0.25, 847, 3, -0.25, 848, 3, -0.25, 846, 3, -0.25
*EQUATION
3
1720, 1, 1.0, 846, 1, -0.5, 848, 1, -0.5
*EQUATION
3
1720, 2, 1.0, 846, 2, -0.5, 848, 2, -0.5
*EQUATION
3
1720, 3, 1.0, 846, 3, -0.5, 848, 3, -0.5
*EQUATION
3
1721, 1, 1.0, 847, 1, -0.5, 848, 1, -0.5
*EQUATION
3
1721, 2, 1.0, 847, 2, -0.5, 848, 2, -0.5
*EQUATION
3
1721, 3, 1.0, 847, 3, -0.5, 848, 3, -0.5
*EQUATION
5
1722, 1, 1.0, 845, 1, -0.25, 893, 1, -0.25, 894, 1, -0.25, 846, 1, -0.25
*EQUATION
5
1722, 2, 1.0, 845, 2, -0.25, 893, 2, -0.25, 894, 2, -0.25, 846, 2, -0.25
*EQUATION
5
1722, 3, 1.0, 845, 3, -0.25, 893, 3, -0.25, 894, 3, -0.25, 846, 3, -0.25
*EQUATION
3
1723, 1, 1.0, 846, 1, -0.5, 894, 1, -0.5
*EQUATION
3
1723, 2, 1.0, 846, 2, -0.5, 894, 2, -0.5
*EQUATION
3
1723, 3, 1.0, 846, 3, -0.5, 894, 3, -0.5
*EQUATION
5
1726, 1, 1.0, 847, 1, -0.25, 895, 1, -0.25, 896, 1, -0.25, 848, 1, -0.25
*EQUATION
5
1726, 2, 1.0, 847, 2, -0.25, 895, 2, -0.25, 896, 2, -0.25, 848, 2, -0.25
*EQUATION
5
1726, 3, 1.0, 847, 3, -0.25, 895, 3, -0.25, 896, 3, -0.25, 848, 3, -0.25
*EQUATION
3
1727, 1, 1.0, 848, 1, -0.5, 896, 1, -0.5
*EQUATION
3
1727, 2, 1.0, 848, 2, -0.5, 896, 2, -0.5
*EQUATION
3
1727, 3, 1.0, 848, 3, -0.5, 896, 3, -0.5
*EQUATION
3
1728, 1, 1.0, 893, 1, -0.5, 894, 1, -0.5
*EQUATION
3
1728, 2, 1.0, 893, 2, -0.5, 894, 2, -0.5
*EQUATION
3
1728, 3, 1.0, 893, 3, -0.5, 894, 3, -0.5
*EQUATION
3
1731, 1, 1.0, 895, 1, -0.5, 896, 1, -0.5
*EQUATION
3
1731, 2, 1.0, 895, 2, -0.5, 896, 2, -0.5
*EQUATION
3
1731, 3, 1.0, 895, 3, -0.5, 896, 3, -0.5
*EQUATION
3
1732, 1, 1.0, 859, 1, -0.5, 907, 1, -0.5
*EQUATION
3
1732, 2, 1.0, 859, 2, -0.5, 907, 2, -0.5
*EQUATION
3
1732, 3, 1.0, 859, 3, -0.5, 907, 3, -0.5
*EQUATION
5
1733, 1, 1.0, 859, 1, -0.25, 907, 1, -0.25, 908, 1, -0.25, 860, 1, -0.25
*EQUATION
5
1733, 2, 1.0, 859, 2, -0.25, 907, 2, -0.25, 908, 2, -0.25, 860, 2, -0.25
*EQUATION
5
1733, 3, 1.0, 859, 3, -0.25, 907, 3, -0.25, 908, 3, -0.25, 860, 3, -0.25
*EQUATION
3
1734, 1, 1.0, 860, 1, -0.5, 908, 1, -0.5
*EQUATION
3
1734, 2, 1.0, 860, 2, -0.5, 908, 2, -0.5
*EQUATION
3
1734, 3, 1.0, 860, 3, -0.5, 908, 3, -0.5
*EQUATION
3
1741, 1, 1.0, 907, 1, -0.5, 908, 1, -0.5
*EQUATION
3
1741, 2, 1.0, 907, 2, -0.5, 908, 2, -0.5
*EQUATION
3
1741, 3, 1.0, 907, 3, -0.5, 908, 3, -0.5
*EQUATION
5
1746, 1, 1.0, 860, 1, -0.25, 908, 1, -0.25, 909, 1, -0.25, 861, 1, -0.25
*EQUATION
5
1746, 2, 1.0, 860, 2, -0.25, 908, 2, -0.25, 909, 2, -0.25, 861, 2, -0.25
*EQUATION
5
1746, 3, 1.0, 860, 3, -0.25, 908, 3, -0.25, 909, 3, -0.25, 861, 3, -0.25
*EQUATION
3
1747, 1, 1.0, 861, 1, -0.5, 909, 1, -0.5
*EQUATION
3
1747, 2, 1.0, 861, 2, -0.5, 909, 2, -0.5
*EQUATION
3
1747, 3, 1.0, 861, 3, -0.5, 909, 3, -0.5
*EQUATION
3
1752, 1, 1.0, 908, 1, -0.5, 909, 1, -0.5
*EQUATION
3
1752, 2, 1.0, 908, 2, -0.5, 909, 2, -0.5
*EQUATION
3
1752, 3, 1.0, 908, 3, -0.5, 909, 3, -0.5
*BOUNDARY
CLAMP, 1, 3, 0.0
*STEP
*STATIC
*CLOAD
887, 3, -357.142857143
888, 3, -357.142857143
891, 3, -357.142857143
894, 3, -357.142857143
896, 3, -357.142857143
898, 3, -357.142857143
900, 3, -357.142857143
903, 3, -357.142857143
906, 3, -357.142857143
909, 3, -357.142857143
912, 3, -357.142857143
1698, 3, -357.142857143
1730, 3, -357.142857143
1754, 3, -357.142857143
*NODE FILE
U
*EL FILE
S, ENER
*NODE PRINT, NSET=TIP_TOP
U
*NODE PRINT, NSET=CLAMP
RF
*EL PRINT, ELSET=EALL
ELSE
*ENERGY PRINT
*END STEP
