*HEADING
T08 D-LIN t08_d-lin_rev1 conforming C3D8 frozen T
units: mm, N, s, MPa, t. Illustrative steel, not a coupon card.
beam=T08 case=D-LIN job=t08_d-lin_rev1 type=C3D8
E=210000.0 nu=0.3 fy=235.0 load=-8000.0 N on TIP_TOP
*NODE, NSET=NALL
1, 0, -16, 0
2, 65.5072403087, -15.6724637985, 4.0942025193
3, 65.5072403087, 0, 4.0942025193
4, 0, 0, 0
5, 0, -16, 42
6, 65.5072403087, -15.6724637985, 45.2753620154
7, 65.5072403087, 0, 45.2753620154
8, 0, 0, 42
9, 0, -16, 84
10, 65.5072403087, -15.6724637985, 86.4565215116
11, 65.5072403087, 0, 86.4565215116
12, 0, 0, 84
13, 0, -16, 126
14, 65.5072403087, -15.6724637985, 127.637681008
15, 65.5072403087, 0, 127.637681008
16, 0, 0, 126
17, 0, -16, 168
18, 65.5072403087, -15.6724637985, 168.818840504
19, 65.5072403087, 0, 168.818840504
20, 0, 0, 168
** ... 1900 like lines cut
*ELEMENT, TYPE=C3D8, ELSET=EALL
1, 1, 2, 3, 4, 5, 6, 7, 8
2, 5, 6, 7, 8, 9, 10, 11, 12
3, 9, 10, 11, 12, 13, 14, 15, 16
4, 13, 14, 15, 16, 17, 18, 19, 20
5, 17, 18, 19, 20, 21, 22, 23, 24
6, 4, 3, 25, 26, 8, 7, 27, 28
7, 8, 7, 27, 28, 12, 11, 29, 30
8, 12, 11, 29, 30, 16, 15, 31, 32
9, 16, 15, 31, 32, 20, 19, 33, 34
10, 20, 19, 33, 34, 24, 23, 35, 36
11, 37, 38, 39, 40, 41, 42, 43, 44
12, 41, 42, 43, 44, 45, 46, 47, 48
13, 40, 39, 49, 50, 44, 43, 51, 52
14, 44, 43, 51, 52, 48, 47, 53, 54
15, 50, 49, 55, 56, 52, 51, 57, 58
16, 52, 51, 57, 58, 54, 53, 59, 60
17, 56, 55, 22, 21, 58, 57, 61, 62
18, 58, 57, 61, 62, 60, 59, 63, 64
19, 21, 22, 23, 24, 62, 61, 65, 66
20, 62, 61, 65, 66, 64, 63, 67, 68
** ... 1150 like lines cut
*NSET, NSET=CLAMP
1, 4, 5, 8, 9, 12, 13, 16, 17, 20, 21, 24, 26, 28, 30, 32
34, 36, 37, 40, 41, 44, 45, 48, 50, 52, 54, 56, 58, 60, 62, 64
66, 68, 70, 72, 74, 76, 78, 80, 82, 84, 86, 88, 90, 92, 94, 96
*NSET, NSET=TIP_TOP
1895, 1896, 1899, 1902, 1904, 1906, 1908, 1911, 1914, 1917, 1920
*NSET, NSET=TIP_FLANGE
1895, 1896, 1899, 1902, 1904, 1906, 1908, 1911, 1914, 1917, 1920
*MATERIAL, NAME=STEEL
*ELASTIC
210000, 0.3
*DENSITY
7.85e-09
*SOLID SECTION, ELSET=EALL, MATERIAL=STEEL
*BOUNDARY
CLAMP, 1, 3, 0.0
*AMPLITUDE, NAME=PULSE
0, 0, 0.004, 1, 0.02, 0, 0.05, 0
*STEP, INC=80
*DYNAMIC
5.0e-4, 0.050, 1.0e-6, 2.0e-3
*CLOAD, AMPLITUDE=PULSE
1895, 3, -727.272727273
1896, 3, -727.272727273
1899, 3, -727.272727273
1902, 3, -727.272727273
1904, 3, -727.272727273
1906, 3, -727.272727273
1908, 3, -727.272727273
1911, 3, -727.272727273
1914, 3, -727.272727273
1917, 3, -727.272727273
1920, 3, -727.272727273
*NODE FILE, FREQUENCY=5
U
*EL FILE, FREQUENCY=5
S, ENER
*NODE PRINT, NSET=TIP_TOP
U
*NODE PRINT, NSET=CLAMP
RF
*EL PRINT, ELSET=EALL
ELSE
*ENERGY PRINT
*END STEP
