*HEADING
T01 S-ISO t01_s-iso_delegated conforming C3D8 frozen T
units: mm, N, s, MPa, t. Illustrative steel, not a coupon card.
beam=T01 case=S-ISO job=t01_s-iso_delegated type=C3D8
E=210000.0 nu=0.3 fy=235.0 load=-39550.5 N on TIP_TOP
*NODE, NSET=NALL
1, 0, -10, 0
2, 36, -10, 2.16
3, 36, 0, 2.16
4, 0, 0, 0
5, 0, -10, 40
6, 36, -10, 41.728
7, 36, 0, 41.728
8, 0, 0, 40
9, 0, -10, 80
10, 36, -10, 81.296
11, 36, 0, 81.296
12, 0, 0, 80
13, 0, -10, 120
14, 36, -10, 120.864
15, 36, 0, 120.864
16, 0, 0, 120
17, 0, -10, 160
18, 36, -10, 160.432
19, 36, 0, 160.432
20, 0, 0, 160
** ... 1708 like lines cut
*ELEMENT, TYPE=C3D8, ELSET=EALL
1, 1, 2, 3, 4, 5, 6, 7, 8
2, 5, 6, 7, 8, 9, 10, 11, 12
3, 9, 10, 11, 12, 13, 14, 15, 16
4, 13, 14, 15, 16, 17, 18, 19, 20
5, 17, 18, 19, 20, 21, 22, 23, 24
6, 4, 3, 25, 26, 8, 7, 27, 28
7, 8, 7, 27, 28, 12, 11, 29, 30
8, 12, 11, 29, 30, 16, 15, 31, 32
9, 16, 15, 31, 32, 20, 19, 33, 34
10, 20, 19, 33, 34, 24, 23, 35, 36
11, 37, 38, 39, 40, 41, 42, 43, 44
12, 41, 42, 43, 44, 45, 46, 47, 48
13, 40, 39, 49, 50, 44, 43, 51, 52
14, 44, 43, 51, 52, 48, 47, 53, 54
15, 50, 49, 55, 56, 52, 51, 57, 58
16, 52, 51, 57, 58, 54, 53, 59, 60
17, 56, 55, 22, 21, 58, 57, 61, 62
18, 58, 57, 61, 62, 60, 59, 63, 64
19, 21, 22, 23, 24, 62, 61, 65, 66
20, 62, 61, 65, 66, 64, 63, 67, 68
** ... 1030 like lines cut
*NSET, NSET=CLAMP
1, 4, 5, 8, 9, 12, 13, 16, 17, 20, 21, 24, 26, 28, 30, 32
34, 36, 37, 40, 41, 44, 45, 48, 50, 52, 54, 56, 58, 60, 62, 64
66, 68, 70, 72, 74, 76, 78, 80, 82, 84, 86, 88, 90, 92, 94, 96
*NSET, NSET=TIP_TOP
1703, 1704, 1707, 1710, 1712, 1714, 1716, 1719, 1722, 1725, 1728
*NSET, NSET=TIP_FLANGE
1703, 1704, 1707, 1710, 1712, 1714, 1716, 1719, 1722, 1725, 1728
*MATERIAL, NAME=STEEL
*ELASTIC
210000, 0.3
*PLASTIC, HARDENING=ISOTROPIC
235, 0
320, 0.02
400, 0.15
*DENSITY
7.85e-09
*SOLID SECTION, ELSET=EALL, MATERIAL=STEEL
*BOUNDARY
CLAMP, 1, 3, 0.0
*STEP, NLGEOM, INC=80
*STATIC
0.05, 1.0, 1.0e-6, 0.1
*CLOAD
1703, 3, -3595.5
1704, 3, -3595.5
1707, 3, -3595.5
1710, 3, -3595.5
1712, 3, -3595.5
1714, 3, -3595.5
1716, 3, -3595.5
1719, 3, -3595.5
1722, 3, -3595.5
1725, 3, -3595.5
1728, 3, -3595.5
*NODE FILE
U
*EL FILE
S, PEEQ, ENER
*NODE PRINT, NSET=TIP_TOP
U
*NODE PRINT, NSET=CLAMP
RF
*EL PRINT, ELSET=EALL
ELSE
*ENERGY PRINT
*END STEP
