*HEADING
G01 S-LIN gmsh C3D10 Dörfler zz cycle 1 C3D10
units: mm, N, s, MPa, t. Illustrative steel, not a coupon card.
beam=G01 case=S-LIN job=g01_slin_zz_c1 type=C3D10
E=210000.0 nu=0.3 fy=235.0 load=-5000.0 N on TIP_TOP
*NODE, NSET=NALL
1, 0, -120, 160
2, 0, -120, 140
3, 0, -10, 140
4, 0, -10, 0
5, 0, 10, 0
6, 0, 10, 140
7, 0, 120, 140
8, 0, 120, 160
9, 2000, -120, 140
10, 2000, -120, 160
11, 2000, 120, 160
12, 2000, 120, 140
13, 2000, -10, 140
14, 2000, 10, 140
15, 2000, -10, 0
16, 2000, 10, 0
17, 0, -120, 150
18, 0, -65, 140
19, 0, -10, 43.9862034065
20, 0, -10, 88.0383213772
** ... 2077 like lines cut
*ELEMENT, TYPE=C3D10, ELSET=EALL
1, 1004, 1226, 1244, 1249, 1519, 1277, 1520, 1521, 1276, 1275
2, 215, 502, 503, 786, 1522, 540, 1523, 837, 1525, 1524
3, 492, 219, 220, 45, 1526, 241, 1527, 1528, 811, 812
4, 1227, 317, 987, 369, 1529, 1094, 1530, 1336, 1472, 1531
5, 182, 181, 272, 523, 202, 913, 917, 1532, 1534, 1533
6, 1237, 327, 1233, 380, 1535, 1536, 1348, 1314, 1492, 1335
7, 329, 381, 1234, 382, 1496, 1320, 1537, 1499, 408, 1321
8, 26, 422, 986, 20, 429, 1538, 1539, 428, 430, 1166
9, 373, 990, 320, 321, 1540, 1075, 1479, 1480, 1074, 347
10, 1259, 994, 1020, 1024, 1541, 1202, 1542, 1543, 1208, 1180
11, 375, 991, 322, 323, 1544, 1089, 1481, 1484, 1088, 349
12, 214, 262, 263, 1247, 1545, 284, 1546, 1547, 1362, 1385
13, 997, 993, 1023, 1261, 1103, 1192, 1191, 1548, 1550, 1549
14, 226, 225, 489, 274, 247, 1551, 1552, 1553, 1555, 1554
15, 270, 496, 491, 528, 1556, 643, 1557, 1558, 642, 641
16, 276, 505, 226, 227, 1559, 1560, 1561, 1562, 1563, 248
17, 319, 371, 1229, 372, 1476, 1326, 1564, 1477, 398, 1327
18, 1009, 316, 315, 369, 1141, 342, 1154, 1565, 1471, 1470
19, 1235, 1243, 995, 270, 1282, 1566, 1567, 1284, 1283, 1568
20, 187, 277, 494, 525, 890, 1569, 1570, 1571, 1572, 635
** ... 937 like lines cut
*NSET, NSET=CLAMP
1, 2, 3, 4, 5, 6, 7, 8, 17, 18, 19, 20, 21, 22, 23, 24
25, 26, 27, 28, 29, 30, 31, 32, 33, 34, 35, 36, 421, 422, 423, 424
425, 426, 427, 428, 429, 430, 431, 432, 433, 434, 435, 436, 437, 438, 439
*NSET, NSET=TIP_TOP
10, 11, 161, 162, 163, 164, 165, 166, 167, 168, 169
*NSET, NSET=TIP_FLANGE
9, 10, 11, 12, 13, 14, 78, 161, 162, 163, 164, 165, 166, 167, 168, 169
211, 255, 256, 257, 258, 259, 260, 973, 974, 975, 976, 977, 978, 979, 980, 981
982
*MATERIAL, NAME=STEEL
*ELASTIC
210000, 0.3
*SOLID SECTION, ELSET=EALL, MATERIAL=STEEL
*BOUNDARY
CLAMP, 1, 3, 0.0
*STEP
*STATIC
*CLOAD
10, 3, -454.545454545
11, 3, -454.545454545
161, 3, -454.545454545
162, 3, -454.545454545
163, 3, -454.545454545
164, 3, -454.545454545
165, 3, -454.545454545
166, 3, -454.545454545
167, 3, -454.545454545
168, 3, -454.545454545
169, 3, -454.545454545
*NODE FILE
U
*EL FILE
S, ENER
*NODE PRINT, NSET=TIP_TOP
U
*NODE PRINT, NSET=CLAMP
RF
*EL PRINT, ELSET=EALL
ELSE
*ENERGY PRINT
*END STEP
