*HEADING
G01 S-LIN uniform 8-split once (540->4320)
units: mm, N, s, MPa. Material is illustrative steel, not a coupon card.
E=210000.0 nu=0.3. load -5000.0 N on TIP_TOP.
*NODE, NSET=NALL
1, 0, -10, 0
2, 111.111111111, -10, 0
3, 111.111111111, 0, 0
4, 0, 0, 0
5, 0, -10, 28
6, 111.111111111, -10, 28
7, 111.111111111, 0, 28
8, 0, 0, 28
9, 0, -10, 56
10, 111.111111111, -10, 56
11, 111.111111111, 0, 56
12, 0, 0, 56
13, 0, -10, 84
14, 111.111111111, -10, 84
15, 111.111111111, 0, 84
16, 0, 0, 84
17, 0, -10, 112
18, 111.111111111, -10, 112
19, 111.111111111, 0, 112
20, 0, 0, 112
** ... 5715 like lines cut
*ELEMENT, TYPE=C3D8, ELSET=EALL
1, 1, 918, 921, 914, 913, 919, 922, 915
2, 913, 919, 922, 915, 5, 920, 923, 916
3, 914, 921, 924, 4, 915, 922, 925, 917
4, 915, 922, 925, 917, 916, 923, 926, 8
5, 918, 2, 928, 921, 919, 927, 929, 922
6, 919, 927, 929, 922, 920, 6, 930, 923
7, 921, 928, 3, 924, 922, 929, 931, 925
8, 922, 929, 931, 925, 923, 930, 7, 926
9, 5, 920, 923, 916, 932, 936, 938, 933
10, 932, 936, 938, 933, 9, 937, 939, 934
11, 916, 923, 926, 8, 933, 938, 940, 935
12, 933, 938, 940, 935, 934, 939, 941, 12
13, 920, 6, 930, 923, 936, 942, 943, 938
14, 936, 942, 943, 938, 937, 10, 944, 939
15, 923, 930, 7, 926, 938, 943, 945, 940
16, 938, 943, 945, 940, 939, 944, 11, 941
17, 9, 937, 939, 934, 946, 950, 952, 947
18, 946, 950, 952, 947, 13, 951, 953, 948
19, 934, 939, 941, 12, 947, 952, 954, 949
20, 947, 952, 954, 949, 948, 953, 955, 16
** ... 4300 like lines cut
*NSET, NSET=CLAMP
1, 4, 5, 8, 9, 12, 13, 16, 17, 20, 21, 24, 26, 28, 30, 32
34, 36, 37, 40, 41, 44, 45, 48, 50, 52, 54, 56, 58, 60, 62, 64
66, 68, 70, 72, 74, 76, 78, 80, 82, 84, 86, 88, 90, 92, 94, 96
913, 914, 915, 916, 917, 932, 933, 934, 935, 946, 947, 948, 949, 960, 961, 962
963, 974, 975, 976, 977, 988, 989, 990, 991, 1002, 1003, 1004, 1012, 1013, 1014, 1022
1023, 1024, 1032, 1033, 1034, 1042, 1043, 1044, 1045, 1046, 1061, 1062, 1063, 1064, 1075, 1076
1077, 1078, 1089, 1090, 1091, 1099, 1100, 1101, 1102, 1113, 1114, 1115, 1123, 1124, 1125, 1126
1136, 1137, 1138, 1146, 1147, 1148, 1156, 1157, 1158, 1166, 1167, 1168, 1176, 1177, 1178, 1186
1187, 1188, 1189, 1200, 1201, 1202, 1210, 1211, 1212, 1213, 1224, 1225, 1226, 1234, 1235, 1236
1237, 1248, 1249, 1250, 1258, 1259, 1260, 1261, 1272, 1273, 1274
*NSET, NSET=TIP_TOP
887, 888, 891, 894, 896, 898, 900, 903, 906, 909, 912, 5588, 5605, 5622, 5638, 5652
5666, 5683, 5700, 5717, 5734
*MATERIAL, NAME=STEEL
*ELASTIC
210000, 0.3
*SOLID SECTION, ELSET=EALL, MATERIAL=STEEL
*BOUNDARY
CLAMP, 1, 3, 0.0
*STEP
*STATIC
*CLOAD
887, 3, -238.095238095
888, 3, -238.095238095
891, 3, -238.095238095
894, 3, -238.095238095
896, 3, -238.095238095
898, 3, -238.095238095
900, 3, -238.095238095
903, 3, -238.095238095
906, 3, -238.095238095
909, 3, -238.095238095
912, 3, -238.095238095
5588, 3, -238.095238095
5605, 3, -238.095238095
5622, 3, -238.095238095
5638, 3, -238.095238095
5652, 3, -238.095238095
5666, 3, -238.095238095
5683, 3, -238.095238095
5700, 3, -238.095238095
5717, 3, -238.095238095
5734, 3, -238.095238095
*NODE FILE
U
*EL FILE
S, ENER
*NODE PRINT, NSET=TIP_TOP
U
*NODE PRINT, NSET=CLAMP
RF
*EL PRINT, ELSET=EALL
ELSE
*ENERGY PRINT
*END STEP
