*HEADING
T05 S-LIN hanging 8-split zz cycle 1
units: mm, N, s, MPa. Material is illustrative steel, not a coupon card.
E=210000.0 nu=0.3. load -5000.0 N on TIP_TOP.
*NODE, NSET=NALL
1, 0, -10, 0
2, 111.111111111, -10, 0
3, 111.111111111, 0, 0
4, 0, 0, 0
5, 0, -10, 28
6, 111.111111111, -10, 28
7, 111.111111111, 0, 28
8, 0, 0, 28
9, 0, -10, 56
10, 111.111111111, -10, 56
11, 111.111111111, 0, 56
12, 0, 0, 56
13, 0, -10, 84
14, 111.111111111, -10, 84
15, 111.111111111, 0, 84
16, 0, 0, 84
17, 0, -10, 112
18, 111.111111111, -10, 112
19, 111.111111111, 0, 112
20, 0, 0, 112
** ... 1459 like lines cut
*ELEMENT, TYPE=C3D8, ELSET=EALL
1, 1, 918, 921, 914, 913, 919, 922, 915
2, 913, 919, 922, 915, 5, 920, 923, 916
3, 914, 921, 924, 4, 915, 922, 925, 917
4, 915, 922, 925, 917, 916, 923, 926, 8
5, 918, 2, 928, 921, 919, 927, 929, 922
6, 919, 927, 929, 922, 920, 6, 930, 923
7, 921, 928, 3, 924, 922, 929, 931, 925
8, 922, 929, 931, 925, 923, 930, 7, 926
9, 5, 6, 7, 8, 9, 10, 11, 12
10, 9, 10, 11, 12, 13, 14, 15, 16
11, 13, 14, 15, 16, 17, 18, 19, 20
12, 17, 18, 19, 20, 21, 22, 23, 24
13, 4, 924, 936, 932, 917, 925, 937, 933
14, 917, 925, 937, 933, 8, 926, 938, 934
15, 932, 936, 939, 26, 933, 937, 940, 935
16, 933, 937, 940, 935, 934, 938, 941, 28
17, 924, 3, 942, 936, 925, 931, 943, 937
18, 925, 931, 943, 937, 926, 7, 944, 938
19, 936, 942, 25, 939, 937, 943, 945, 940
20, 937, 943, 945, 940, 938, 944, 27, 941
** ... 821 like lines cut
*NSET, NSET=CLAMP
1, 4, 5, 8, 9, 12, 13, 16, 17, 20, 21, 24, 26, 28, 30, 32
34, 36, 37, 40, 41, 44, 45, 48, 50, 52, 54, 56, 58, 60, 62, 64
66, 68, 70, 72, 74, 76, 78, 80, 82, 84, 86, 88, 90, 92, 94, 96
913, 914, 915, 916, 917, 932, 933, 934, 935
*NSET, NSET=TIP_TOP
887, 888, 891, 894, 896, 898, 900, 903, 906, 909, 912, 1440, 1454, 1478
*MATERIAL, NAME=STEEL
*ELASTIC
210000, 0.3
*SOLID SECTION, ELSET=EALL, MATERIAL=STEEL
*EQUATION
3
920, 1, 1.0, 5, 1, -0.5, 6, 1, -0.5
*EQUATION
3
920, 2, 1.0, 5, 2, -0.5, 6, 2, -0.5
*EQUATION
3
920, 3, 1.0, 5, 3, -0.5, 6, 3, -0.5
*EQUATION
5
923, 1, 1.0, 5, 1, -0.25, 6, 1, -0.25, 7, 1, -0.25, 8, 1, -0.25
*EQUATION
5
923, 2, 1.0, 5, 2, -0.25, 6, 2, -0.25, 7, 2, -0.25, 8, 2, -0.25
*EQUATION
5
923, 3, 1.0, 5, 3, -0.25, 6, 3, -0.25, 7, 3, -0.25, 8, 3, -0.25
*EQUATION
3
926, 1, 1.0, 7, 1, -0.5, 8, 1, -0.5
*EQUATION
3
926, 2, 1.0, 7, 2, -0.5, 8, 2, -0.5
*EQUATION
3
926, 3, 1.0, 7, 3, -0.5, 8, 3, -0.5
*EQUATION
3
930, 1, 1.0, 6, 1, -0.5, 7, 1, -0.5
*EQUATION
3
930, 2, 1.0, 6, 2, -0.5, 7, 2, -0.5
*EQUATION
3
930, 3, 1.0, 6, 3, -0.5, 7, 3, -0.5
*EQUATION
5
938, 1, 1.0, 8, 1, -0.25, 7, 1, -0.25, 27, 1, -0.25, 28, 1, -0.25
*EQUATION
5
938, 2, 1.0, 8, 2, -0.25, 7, 2, -0.25, 27, 2, -0.25, 28, 2, -0.25
*EQUATION
5
938, 3, 1.0, 8, 3, -0.25, 7, 3, -0.25, 27, 3, -0.25, 28, 3, -0.25
*EQUATION
3
941, 1, 1.0, 27, 1, -0.5, 28, 1, -0.5
*EQUATION
3
941, 2, 1.0, 27, 2, -0.5, 28, 2, -0.5
*EQUATION
3
941, 3, 1.0, 27, 3, -0.5, 28, 3, -0.5
*EQUATION
3
944, 1, 1.0, 7, 1, -0.5, 27, 1, -0.5
*EQUATION
3
944, 2, 1.0, 7, 2, -0.5, 27, 2, -0.5
*EQUATION
3
944, 3, 1.0, 7, 3, -0.5, 27, 3, -0.5
*EQUATION
3
948, 1, 1.0, 6, 1, -0.5, 99, 1, -0.5
*EQUATION
3
948, 2, 1.0, 6, 2, -0.5, 99, 2, -0.5
*EQUATION
3
948, 3, 1.0, 6, 3, -0.5, 99, 3, -0.5
*EQUATION
5
951, 1, 1.0, 6, 1, -0.25, 99, 1, -0.25, 100, 1, -0.25, 7, 1, -0.25
*EQUATION
5
951, 2, 1.0, 6, 2, -0.25, 99, 2, -0.25, 100, 2, -0.25, 7, 2, -0.25
*EQUATION
5
951, 3, 1.0, 6, 3, -0.25, 99, 3, -0.25, 100, 3, -0.25, 7, 3, -0.25
*EQUATION
3
954, 1, 1.0, 7, 1, -0.5, 100, 1, -0.5
*EQUATION
3
954, 2, 1.0, 7, 2, -0.5, 100, 2, -0.5
*EQUATION
3
954, 3, 1.0, 7, 3, -0.5, 100, 3, -0.5
*EQUATION
3
955, 1, 1.0, 97, 1, -0.5, 99, 1, -0.5
*EQUATION
3
955, 2, 1.0, 97, 2, -0.5, 99, 2, -0.5
*EQUATION
3
955, 3, 1.0, 97, 3, -0.5, 99, 3, -0.5
*EQUATION
3
956, 1, 1.0, 97, 1, -0.5, 98, 1, -0.5
*EQUATION
3
956, 2, 1.0, 97, 2, -0.5, 98, 2, -0.5
*EQUATION
3
956, 3, 1.0, 97, 3, -0.5, 98, 3, -0.5
*EQUATION
5
957, 1, 1.0, 97, 1, -0.25, 98, 1, -0.25, 100, 1, -0.25, 99, 1, -0.25
*EQUATION
5
957, 2, 1.0, 97, 2, -0.25, 98, 2, -0.25, 100, 2, -0.25, 99, 2, -0.25
*EQUATION
5
957, 3, 1.0, 97, 3, -0.25, 98, 3, -0.25, 100, 3, -0.25, 99, 3, -0.25
*EQUATION
3
958, 1, 1.0, 99, 1, -0.5, 100, 1, -0.5
*EQUATION
3
958, 2, 1.0, 99, 2, -0.5, 100, 2, -0.5
*EQUATION
3
958, 3, 1.0, 99, 3, -0.5, 100, 3, -0.5
*EQUATION
3
959, 1, 1.0, 98, 1, -0.5, 100, 1, -0.5
*EQUATION
3
959, 2, 1.0, 98, 2, -0.5, 100, 2, -0.5
*EQUATION
3
959, 3, 1.0, 98, 3, -0.5, 100, 3, -0.5
*EQUATION
5
962, 1, 1.0, 7, 1, -0.25, 100, 1, -0.25, 110, 1, -0.25, 27, 1, -0.25
*EQUATION
5
962, 2, 1.0, 7, 2, -0.25, 100, 2, -0.25, 110, 2, -0.25, 27, 2, -0.25
*EQUATION
5
962, 3, 1.0, 7, 3, -0.25, 100, 3, -0.25, 110, 3, -0.25, 27, 3, -0.25
*EQUATION
3
965, 1, 1.0, 27, 1, -0.5, 110, 1, -0.5
*EQUATION
3
965, 2, 1.0, 27, 2, -0.5, 110, 2, -0.5
*EQUATION
3
965, 3, 1.0, 27, 3, -0.5, 110, 3, -0.5
*EQUATION
3
966, 1, 1.0, 98, 1, -0.5, 109, 1, -0.5
*EQUATION
3
966, 2, 1.0, 98, 2, -0.5, 109, 2, -0.5
*EQUATION
3
966, 3, 1.0, 98, 3, -0.5, 109, 3, -0.5
*EQUATION
5
967, 1, 1.0, 98, 1, -0.25, 109, 1, -0.25, 110, 1, -0.25, 100, 1, -0.25
*EQUATION
5
967, 2, 1.0, 98, 2, -0.25, 109, 2, -0.25, 110, 2, -0.25, 100, 2, -0.25
*EQUATION
5
967, 3, 1.0, 98, 3, -0.25, 109, 3, -0.25, 110, 3, -0.25, 100, 3, -0.25
*EQUATION
3
968, 1, 1.0, 100, 1, -0.5, 110, 1, -0.5
*EQUATION
3
968, 2, 1.0, 100, 2, -0.5, 110, 2, -0.5
*EQUATION
3
968, 3, 1.0, 100, 3, -0.5, 110, 3, -0.5
*EQUATION
3
969, 1, 1.0, 109, 1, -0.5, 110, 1, -0.5
*EQUATION
3
969, 2, 1.0, 109, 2, -0.5, 110, 2, -0.5
*EQUATION
3
969, 3, 1.0, 109, 3, -0.5, 110, 3, -0.5
*EQUATION
3
970, 1, 1.0, 453, 1, -0.5, 455, 1, -0.5
*EQUATION
3
970, 2, 1.0, 453, 2, -0.5, 455, 2, -0.5
*EQUATION
3
970, 3, 1.0, 453, 3, -0.5, 455, 3, -0.5
*EQUATION
3
971, 1, 1.0, 453, 1, -0.5, 454, 1, -0.5
*EQUATION
3
971, 2, 1.0, 453, 2, -0.5, 454, 2, -0.5
*EQUATION
3
971, 3, 1.0, 453, 3, -0.5, 454, 3, -0.5
*EQUATION
5
972, 1, 1.0, 453, 1, -0.25, 454, 1, -0.25, 456, 1, -0.25, 455, 1, -0.25
*EQUATION
5
972, 2, 1.0, 453, 2, -0.25, 454, 2, -0.25, 456, 2, -0.25, 455, 2, -0.25
*EQUATION
5
972, 3, 1.0, 453, 3, -0.25, 454, 3, -0.25, 456, 3, -0.25, 455, 3, -0.25
*EQUATION
3
973, 1, 1.0, 455, 1, -0.5, 456, 1, -0.5
*EQUATION
3
973, 2, 1.0, 455, 2, -0.5, 456, 2, -0.5
*EQUATION
3
973, 3, 1.0, 455, 3, -0.5, 456, 3, -0.5
*EQUATION
3
974, 1, 1.0, 454, 1, -0.5, 456, 1, -0.5
*EQUATION
3
974, 2, 1.0, 454, 2, -0.5, 456, 2, -0.5
*EQUATION
3
974, 3, 1.0, 454, 3, -0.5, 456, 3, -0.5
*EQUATION
3
975, 1, 1.0, 453, 1, -0.5, 501, 1, -0.5
*EQUATION
3
975, 2, 1.0, 453, 2, -0.5, 501, 2, -0.5
*EQUATION
3
975, 3, 1.0, 453, 3, -0.5, 501, 3, -0.5
*EQUATION
5
978, 1, 1.0, 453, 1, -0.25, 501, 1, -0.25, 502, 1, -0.25, 454, 1, -0.25
*EQUATION
5
978, 2, 1.0, 453, 2, -0.25, 501, 2, -0.25, 502, 2, -0.25, 454, 2, -0.25
*EQUATION
5
978, 3, 1.0, 453, 3, -0.25, 501, 3, -0.25, 502, 3, -0.25, 454, 3, -0.25
*EQUATION
3
981, 1, 1.0, 454, 1, -0.5, 502, 1, -0.5
*EQUATION
3
981, 2, 1.0, 454, 2, -0.5, 502, 2, -0.5
*EQUATION
3
981, 3, 1.0, 454, 3, -0.5, 502, 3, -0.5
*EQUATION
5
982, 1, 1.0, 454, 1, -0.25, 502, 1, -0.25, 504, 1, -0.25, 456, 1, -0.25
*EQUATION
5
982, 2, 1.0, 454, 2, -0.25, 502, 2, -0.25, 504, 2, -0.25, 456, 2, -0.25
*EQUATION
5
982, 3, 1.0, 454, 3, -0.25, 502, 3, -0.25, 504, 3, -0.25, 456, 3, -0.25
*EQUATION
3
983, 1, 1.0, 456, 1, -0.5, 504, 1, -0.5
*EQUATION
3
983, 2, 1.0, 456, 2, -0.5, 504, 2, -0.5
*EQUATION
3
983, 3, 1.0, 456, 3, -0.5, 504, 3, -0.5
*EQUATION
3
985, 1, 1.0, 501, 1, -0.5, 502, 1, -0.5
*EQUATION
3
985, 2, 1.0, 501, 2, -0.5, 502, 2, -0.5
*EQUATION
3
985, 3, 1.0, 501, 3, -0.5, 502, 3, -0.5
*EQUATION
3
988, 1, 1.0, 502, 1, -0.5, 504, 1, -0.5
*EQUATION
3
988, 2, 1.0, 502, 2, -0.5, 504, 2, -0.5
*EQUATION
3
988, 3, 1.0, 502, 3, -0.5, 504, 3, -0.5
*EQUATION
3
989, 1, 1.0, 476, 1, -0.5, 477, 1, -0.5
*EQUATION
3
989, 2, 1.0, 476, 2, -0.5, 477, 2, -0.5
*EQUATION
3
989, 3, 1.0, 476, 3, -0.5, 477, 3, -0.5
*EQUATION
3
990, 1, 1.0, 476, 1, -0.5, 479, 1, -0.5
*EQUATION
3
990, 2, 1.0, 476, 2, -0.5, 479, 2, -0.5
*EQUATION
3
990, 3, 1.0, 476, 3, -0.5, 479, 3, -0.5
*EQUATION
5
991, 1, 1.0, 476, 1, -0.25, 479, 1, -0.25, 480, 1, -0.25, 477, 1, -0.25
*EQUATION
5
991, 2, 1.0, 476, 2, -0.25, 479, 2, -0.25, 480, 2, -0.25, 477, 2, -0.25
*EQUATION
5
991, 3, 1.0, 476, 3, -0.25, 479, 3, -0.25, 480, 3, -0.25, 477, 3, -0.25
*EQUATION
3
992, 1, 1.0, 477, 1, -0.5, 480, 1, -0.5
*EQUATION
3
992, 2, 1.0, 477, 2, -0.5, 480, 2, -0.5
*EQUATION
3
992, 3, 1.0, 477, 3, -0.5, 480, 3, -0.5
*EQUATION
3
993, 1, 1.0, 479, 1, -0.5, 480, 1, -0.5
*EQUATION
3
993, 2, 1.0, 479, 2, -0.5, 480, 2, -0.5
*EQUATION
3
993, 3, 1.0, 479, 3, -0.5, 480, 3, -0.5
*EQUATION
3
994, 1, 1.0, 476, 1, -0.5, 524, 1, -0.5
*EQUATION
3
994, 2, 1.0, 476, 2, -0.5, 524, 2, -0.5
*EQUATION
3
994, 3, 1.0, 476, 3, -0.5, 524, 3, -0.5
*EQUATION
5
995, 1, 1.0, 476, 1, -0.25, 524, 1, -0.25, 525, 1, -0.25, 477, 1, -0.25
*EQUATION
5
995, 2, 1.0, 476, 2, -0.25, 524, 2, -0.25, 525, 2, -0.25, 477, 2, -0.25
*EQUATION
5
995, 3, 1.0, 476, 3, -0.25, 524, 3, -0.25, 525, 3, -0.25, 477, 3, -0.25
*EQUATION
3
996, 1, 1.0, 477, 1, -0.5, 525, 1, -0.5
*EQUATION
3
996, 2, 1.0, 477, 2, -0.5, 525, 2, -0.5
*EQUATION
3
996, 3, 1.0, 477, 3, -0.5, 525, 3, -0.5
*EQUATION
5
997, 1, 1.0, 476, 1, -0.25, 524, 1, -0.25, 527, 1, -0.25, 479, 1, -0.25
*EQUATION
5
997, 2, 1.0, 476, 2, -0.25, 524, 2, -0.25, 527, 2, -0.25, 479, 2, -0.25
*EQUATION
5
997, 3, 1.0, 476, 3, -0.25, 524, 3, -0.25, 527, 3, -0.25, 479, 3, -0.25
*EQUATION
3
1000, 1, 1.0, 479, 1, -0.5, 527, 1, -0.5
*EQUATION
3
1000, 2, 1.0, 479, 2, -0.5, 527, 2, -0.5
*EQUATION
3
1000, 3, 1.0, 479, 3, -0.5, 527, 3, -0.5
*EQUATION
3
1003, 1, 1.0, 524, 1, -0.5, 525, 1, -0.5
*EQUATION
3
1003, 2, 1.0, 524, 2, -0.5, 525, 2, -0.5
*EQUATION
3
1003, 3, 1.0, 524, 3, -0.5, 525, 3, -0.5
*EQUATION
3
1004, 1, 1.0, 524, 1, -0.5, 527, 1, -0.5
*EQUATION
3
1004, 2, 1.0, 524, 2, -0.5, 527, 2, -0.5
*EQUATION
3
1004, 3, 1.0, 524, 3, -0.5, 527, 3, -0.5
*EQUATION
3
1008, 1, 1.0, 499, 1, -0.5, 501, 1, -0.5
*EQUATION
3
1008, 2, 1.0, 499, 2, -0.5, 501, 2, -0.5
*EQUATION
3
1008, 3, 1.0, 499, 3, -0.5, 501, 3, -0.5
*EQUATION
3
1009, 1, 1.0, 499, 1, -0.5, 500, 1, -0.5
*EQUATION
3
1009, 2, 1.0, 499, 2, -0.5, 500, 2, -0.5
*EQUATION
3
1009, 3, 1.0, 499, 3, -0.5, 500, 3, -0.5
*EQUATION
5
1010, 1, 1.0, 499, 1, -0.25, 500, 1, -0.25, 502, 1, -0.25, 501, 1, -0.25
*EQUATION
5
1010, 2, 1.0, 499, 2, -0.25, 500, 2, -0.25, 502, 2, -0.25, 501, 2, -0.25
*EQUATION
5
1010, 3, 1.0, 499, 3, -0.25, 500, 3, -0.25, 502, 3, -0.25, 501, 3, -0.25
*EQUATION
3
1011, 1, 1.0, 500, 1, -0.5, 502, 1, -0.5
*EQUATION
3
1011, 2, 1.0, 500, 2, -0.5, 502, 2, -0.5
*EQUATION
3
1011, 3, 1.0, 500, 3, -0.5, 502, 3, -0.5
*EQUATION
3
1018, 1, 1.0, 500, 1, -0.5, 548, 1, -0.5
*EQUATION
3
1018, 2, 1.0, 500, 2, -0.5, 548, 2, -0.5
*EQUATION
3
1018, 3, 1.0, 500, 3, -0.5, 548, 3, -0.5
*EQUATION
5
1019, 1, 1.0, 500, 1, -0.25, 548, 1, -0.25, 550, 1, -0.25, 502, 1, -0.25
*EQUATION
5
1019, 2, 1.0, 500, 2, -0.25, 548, 2, -0.25, 550, 2, -0.25, 502, 2, -0.25
*EQUATION
5
1019, 3, 1.0, 500, 3, -0.25, 548, 3, -0.25, 550, 3, -0.25, 502, 3, -0.25
*EQUATION
3
1020, 1, 1.0, 502, 1, -0.5, 550, 1, -0.5
*EQUATION
3
1020, 2, 1.0, 502, 2, -0.5, 550, 2, -0.5
*EQUATION
3
1020, 3, 1.0, 502, 3, -0.5, 550, 3, -0.5
*EQUATION
3
1025, 1, 1.0, 548, 1, -0.5, 550, 1, -0.5
*EQUATION
3
1025, 2, 1.0, 548, 2, -0.5, 550, 2, -0.5
*EQUATION
3
1025, 3, 1.0, 548, 3, -0.5, 550, 3, -0.5
*EQUATION
5
1030, 1, 1.0, 502, 1, -0.25, 550, 1, -0.25, 552, 1, -0.25, 504, 1, -0.25
*EQUATION
5
1030, 2, 1.0, 502, 2, -0.25, 550, 2, -0.25, 552, 2, -0.25, 504, 2, -0.25
*EQUATION
5
1030, 3, 1.0, 502, 3, -0.25, 550, 3, -0.25, 552, 3, -0.25, 504, 3, -0.25
*EQUATION
3
1031, 1, 1.0, 504, 1, -0.5, 552, 1, -0.5
*EQUATION
3
1031, 2, 1.0, 504, 2, -0.5, 552, 2, -0.5
*EQUATION
3
1031, 3, 1.0, 504, 3, -0.5, 552, 3, -0.5
*EQUATION
3
1035, 1, 1.0, 550, 1, -0.5, 552, 1, -0.5
*EQUATION
3
1035, 2, 1.0, 550, 2, -0.5, 552, 2, -0.5
*EQUATION
3
1035, 3, 1.0, 550, 3, -0.5, 552, 3, -0.5
*EQUATION
3
1036, 1, 1.0, 523, 1, -0.5, 524, 1, -0.5
*EQUATION
3
1036, 2, 1.0, 523, 2, -0.5, 524, 2, -0.5
*EQUATION
3
1036, 3, 1.0, 523, 3, -0.5, 524, 3, -0.5
*EQUATION
3
1037, 1, 1.0, 523, 1, -0.5, 526, 1, -0.5
*EQUATION
3
1037, 2, 1.0, 523, 2, -0.5, 526, 2, -0.5
*EQUATION
3
1037, 3, 1.0, 523, 3, -0.5, 526, 3, -0.5
*EQUATION
5
1038, 1, 1.0, 523, 1, -0.25, 526, 1, -0.25, 527, 1, -0.25, 524, 1, -0.25
*EQUATION
5
1038, 2, 1.0, 523, 2, -0.25, 526, 2, -0.25, 527, 2, -0.25, 524, 2, -0.25
*EQUATION
5
1038, 3, 1.0, 523, 3, -0.25, 526, 3, -0.25, 527, 3, -0.25, 524, 3, -0.25
*EQUATION
3
1039, 1, 1.0, 526, 1, -0.5, 527, 1, -0.5
*EQUATION
3
1039, 2, 1.0, 526, 2, -0.5, 527, 2, -0.5
*EQUATION
3
1039, 3, 1.0, 526, 3, -0.5, 527, 3, -0.5
*EQUATION
3
1040, 1, 1.0, 523, 1, -0.5, 571, 1, -0.5
*EQUATION
3
1040, 2, 1.0, 523, 2, -0.5, 571, 2, -0.5
*EQUATION
3
1040, 3, 1.0, 523, 3, -0.5, 571, 3, -0.5
*EQUATION
5
1041, 1, 1.0, 523, 1, -0.25, 571, 1, -0.25, 572, 1, -0.25, 524, 1, -0.25
*EQUATION
5
1041, 2, 1.0, 523, 2, -0.25, 571, 2, -0.25, 572, 2, -0.25, 524, 2, -0.25
*EQUATION
5
1041, 3, 1.0, 523, 3, -0.25, 571, 3, -0.25, 572, 3, -0.25, 524, 3, -0.25
*EQUATION
3
1042, 1, 1.0, 524, 1, -0.5, 572, 1, -0.5
*EQUATION
3
1042, 2, 1.0, 524, 2, -0.5, 572, 2, -0.5
*EQUATION
3
1042, 3, 1.0, 524, 3, -0.5, 572, 3, -0.5
*EQUATION
3
1049, 1, 1.0, 571, 1, -0.5, 572, 1, -0.5
*EQUATION
3
1049, 2, 1.0, 571, 2, -0.5, 572, 2, -0.5
*EQUATION
3
1049, 3, 1.0, 571, 3, -0.5, 572, 3, -0.5
*EQUATION
5
1054, 1, 1.0, 524, 1, -0.25, 572, 1, -0.25, 573, 1, -0.25, 525, 1, -0.25
*EQUATION
5
1054, 2, 1.0, 524, 2, -0.25, 572, 2, -0.25, 573, 2, -0.25, 525, 2, -0.25
*EQUATION
5
1054, 3, 1.0, 524, 3, -0.25, 572, 3, -0.25, 573, 3, -0.25, 525, 3, -0.25
*EQUATION
3
1055, 1, 1.0, 525, 1, -0.5, 573, 1, -0.5
*EQUATION
3
1055, 2, 1.0, 525, 2, -0.5, 573, 2, -0.5
*EQUATION
3
1055, 3, 1.0, 525, 3, -0.5, 573, 3, -0.5
*EQUATION
3
1060, 1, 1.0, 572, 1, -0.5, 573, 1, -0.5
*EQUATION
3
1060, 2, 1.0, 572, 2, -0.5, 573, 2, -0.5
*EQUATION
3
1060, 3, 1.0, 572, 3, -0.5, 573, 3, -0.5
*EQUATION
3
1070, 1, 1.0, 548, 1, -0.5, 596, 1, -0.5
*EQUATION
3
1070, 2, 1.0, 548, 2, -0.5, 596, 2, -0.5
*EQUATION
3
1070, 3, 1.0, 548, 3, -0.5, 596, 3, -0.5
*EQUATION
5
1071, 1, 1.0, 548, 1, -0.25, 596, 1, -0.25, 598, 1, -0.25, 550, 1, -0.25
*EQUATION
5
1071, 2, 1.0, 548, 2, -0.25, 596, 2, -0.25, 598, 2, -0.25, 550, 2, -0.25
*EQUATION
5
1071, 3, 1.0, 548, 3, -0.25, 596, 3, -0.25, 598, 3, -0.25, 550, 3, -0.25
*EQUATION
3
1072, 1, 1.0, 550, 1, -0.5, 598, 1, -0.5
*EQUATION
3
1072, 2, 1.0, 550, 2, -0.5, 598, 2, -0.5
*EQUATION
3
1072, 3, 1.0, 550, 3, -0.5, 598, 3, -0.5
*EQUATION
3
1077, 1, 1.0, 596, 1, -0.5, 598, 1, -0.5
*EQUATION
3
1077, 2, 1.0, 596, 2, -0.5, 598, 2, -0.5
*EQUATION
3
1077, 3, 1.0, 596, 3, -0.5, 598, 3, -0.5
*EQUATION
5
1082, 1, 1.0, 550, 1, -0.25, 598, 1, -0.25, 600, 1, -0.25, 552, 1, -0.25
*EQUATION
5
1082, 2, 1.0, 550, 2, -0.25, 598, 2, -0.25, 600, 2, -0.25, 552, 2, -0.25
*EQUATION
5
1082, 3, 1.0, 550, 3, -0.25, 598, 3, -0.25, 600, 3, -0.25, 552, 3, -0.25
*EQUATION
3
1083, 1, 1.0, 552, 1, -0.5, 600, 1, -0.5
*EQUATION
3
1083, 2, 1.0, 552, 2, -0.5, 600, 2, -0.5
*EQUATION
3
1083, 3, 1.0, 552, 3, -0.5, 600, 3, -0.5
*EQUATION
3
1087, 1, 1.0, 598, 1, -0.5, 600, 1, -0.5
*EQUATION
3
1087, 2, 1.0, 598, 2, -0.5, 600, 2, -0.5
*EQUATION
3
1087, 3, 1.0, 598, 3, -0.5, 600, 3, -0.5
*EQUATION
3
1088, 1, 1.0, 571, 1, -0.5, 619, 1, -0.5
*EQUATION
3
1088, 2, 1.0, 571, 2, -0.5, 619, 2, -0.5
*EQUATION
3
1088, 3, 1.0, 571, 3, -0.5, 619, 3, -0.5
*EQUATION
5
1089, 1, 1.0, 571, 1, -0.25, 619, 1, -0.25, 620, 1, -0.25, 572, 1, -0.25
*EQUATION
5
1089, 2, 1.0, 571, 2, -0.25, 619, 2, -0.25, 620, 2, -0.25, 572, 2, -0.25
*EQUATION
5
1089, 3, 1.0, 571, 3, -0.25, 619, 3, -0.25, 620, 3, -0.25, 572, 3, -0.25
*EQUATION
3
1090, 1, 1.0, 572, 1, -0.5, 620, 1, -0.5
*EQUATION
3
1090, 2, 1.0, 572, 2, -0.5, 620, 2, -0.5
*EQUATION
3
1090, 3, 1.0, 572, 3, -0.5, 620, 3, -0.5
*EQUATION
3
1097, 1, 1.0, 619, 1, -0.5, 620, 1, -0.5
*EQUATION
3
1097, 2, 1.0, 619, 2, -0.5, 620, 2, -0.5
*EQUATION
3
1097, 3, 1.0, 619, 3, -0.5, 620, 3, -0.5
*EQUATION
5
1102, 1, 1.0, 572, 1, -0.25, 620, 1, -0.25, 621, 1, -0.25, 573, 1, -0.25
*EQUATION
5
1102, 2, 1.0, 572, 2, -0.25, 620, 2, -0.25, 621, 2, -0.25, 573, 2, -0.25
*EQUATION
5
1102, 3, 1.0, 572, 3, -0.25, 620, 3, -0.25, 621, 3, -0.25, 573, 3, -0.25
*EQUATION
3
1103, 1, 1.0, 573, 1, -0.5, 621, 1, -0.5
*EQUATION
3
1103, 2, 1.0, 573, 2, -0.5, 621, 2, -0.5
*EQUATION
3
1103, 3, 1.0, 573, 3, -0.5, 621, 3, -0.5
*EQUATION
3
1108, 1, 1.0, 620, 1, -0.5, 621, 1, -0.5
*EQUATION
3
1108, 2, 1.0, 620, 2, -0.5, 621, 2, -0.5
*EQUATION
3
1108, 3, 1.0, 620, 3, -0.5, 621, 3, -0.5
*EQUATION
3
1118, 1, 1.0, 596, 1, -0.5, 644, 1, -0.5
*EQUATION
3
1118, 2, 1.0, 596, 2, -0.5, 644, 2, -0.5
*EQUATION
3
1118, 3, 1.0, 596, 3, -0.5, 644, 3, -0.5
*EQUATION
5
1119, 1, 1.0, 596, 1, -0.25, 644, 1, -0.25, 646, 1, -0.25, 598, 1, -0.25
*EQUATION
5
1119, 2, 1.0, 596, 2, -0.25, 644, 2, -0.25, 646, 2, -0.25, 598, 2, -0.25
*EQUATION
5
1119, 3, 1.0, 596, 3, -0.25, 644, 3, -0.25, 646, 3, -0.25, 598, 3, -0.25
*EQUATION
3
1120, 1, 1.0, 598, 1, -0.5, 646, 1, -0.5
*EQUATION
3
1120, 2, 1.0, 598, 2, -0.5, 646, 2, -0.5
*EQUATION
3
1120, 3, 1.0, 598, 3, -0.5, 646, 3, -0.5
*EQUATION
3
1125, 1, 1.0, 644, 1, -0.5, 646, 1, -0.5
*EQUATION
3
1125, 2, 1.0, 644, 2, -0.5, 646, 2, -0.5
*EQUATION
3
1125, 3, 1.0, 644, 3, -0.5, 646, 3, -0.5
*EQUATION
5
1130, 1, 1.0, 598, 1, -0.25, 646, 1, -0.25, 648, 1, -0.25, 600, 1, -0.25
*EQUATION
5
1130, 2, 1.0, 598, 2, -0.25, 646, 2, -0.25, 648, 2, -0.25, 600, 2, -0.25
*EQUATION
5
1130, 3, 1.0, 598, 3, -0.25, 646, 3, -0.25, 648, 3, -0.25, 600, 3, -0.25
*EQUATION
3
1131, 1, 1.0, 600, 1, -0.5, 648, 1, -0.5
*EQUATION
3
1131, 2, 1.0, 600, 2, -0.5, 648, 2, -0.5
*EQUATION
3
1131, 3, 1.0, 600, 3, -0.5, 648, 3, -0.5
*EQUATION
3
1135, 1, 1.0, 646, 1, -0.5, 648, 1, -0.5
*EQUATION
3
1135, 2, 1.0, 646, 2, -0.5, 648, 2, -0.5
*EQUATION
3
1135, 3, 1.0, 646, 3, -0.5, 648, 3, -0.5
*EQUATION
3
1136, 1, 1.0, 619, 1, -0.5, 667, 1, -0.5
*EQUATION
3
1136, 2, 1.0, 619, 2, -0.5, 667, 2, -0.5
*EQUATION
3
1136, 3, 1.0, 619, 3, -0.5, 667, 3, -0.5
*EQUATION
5
1137, 1, 1.0, 619, 1, -0.25, 667, 1, -0.25, 668, 1, -0.25, 620, 1, -0.25
*EQUATION
5
1137, 2, 1.0, 619, 2, -0.25, 667, 2, -0.25, 668, 2, -0.25, 620, 2, -0.25
*EQUATION
5
1137, 3, 1.0, 619, 3, -0.25, 667, 3, -0.25, 668, 3, -0.25, 620, 3, -0.25
*EQUATION
3
1138, 1, 1.0, 620, 1, -0.5, 668, 1, -0.5
*EQUATION
3
1138, 2, 1.0, 620, 2, -0.5, 668, 2, -0.5
*EQUATION
3
1138, 3, 1.0, 620, 3, -0.5, 668, 3, -0.5
*EQUATION
3
1145, 1, 1.0, 667, 1, -0.5, 668, 1, -0.5
*EQUATION
3
1145, 2, 1.0, 667, 2, -0.5, 668, 2, -0.5
*EQUATION
3
1145, 3, 1.0, 667, 3, -0.5, 668, 3, -0.5
*EQUATION
5
1150, 1, 1.0, 620, 1, -0.25, 668, 1, -0.25, 669, 1, -0.25, 621, 1, -0.25
*EQUATION
5
1150, 2, 1.0, 620, 2, -0.25, 668, 2, -0.25, 669, 2, -0.25, 621, 2, -0.25
*EQUATION
5
1150, 3, 1.0, 620, 3, -0.25, 668, 3, -0.25, 669, 3, -0.25, 621, 3, -0.25
*EQUATION
3
1151, 1, 1.0, 621, 1, -0.5, 669, 1, -0.5
*EQUATION
3
1151, 2, 1.0, 621, 2, -0.5, 669, 2, -0.5
*EQUATION
3
1151, 3, 1.0, 621, 3, -0.5, 669, 3, -0.5
*EQUATION
3
1156, 1, 1.0, 668, 1, -0.5, 669, 1, -0.5
*EQUATION
3
1156, 2, 1.0, 668, 2, -0.5, 669, 2, -0.5
*EQUATION
3
1156, 3, 1.0, 668, 3, -0.5, 669, 3, -0.5
*EQUATION
3
1166, 1, 1.0, 644, 1, -0.5, 692, 1, -0.5
*EQUATION
3
1166, 2, 1.0, 644, 2, -0.5, 692, 2, -0.5
*EQUATION
3
1166, 3, 1.0, 644, 3, -0.5, 692, 3, -0.5
*EQUATION
5
1167, 1, 1.0, 644, 1, -0.25, 692, 1, -0.25, 694, 1, -0.25, 646, 1, -0.25
*EQUATION
5
1167, 2, 1.0, 644, 2, -0.25, 692, 2, -0.25, 694, 2, -0.25, 646, 2, -0.25
*EQUATION
5
1167, 3, 1.0, 644, 3, -0.25, 692, 3, -0.25, 694, 3, -0.25, 646, 3, -0.25
*EQUATION
3
1168, 1, 1.0, 646, 1, -0.5, 694, 1, -0.5
*EQUATION
3
1168, 2, 1.0, 646, 2, -0.5, 694, 2, -0.5
*EQUATION
3
1168, 3, 1.0, 646, 3, -0.5, 694, 3, -0.5
*EQUATION
3
1173, 1, 1.0, 692, 1, -0.5, 694, 1, -0.5
*EQUATION
3
1173, 2, 1.0, 692, 2, -0.5, 694, 2, -0.5
*EQUATION
3
1173, 3, 1.0, 692, 3, -0.5, 694, 3, -0.5
*EQUATION
5
1178, 1, 1.0, 646, 1, -0.25, 694, 1, -0.25, 696, 1, -0.25, 648, 1, -0.25
*EQUATION
5
1178, 2, 1.0, 646, 2, -0.25, 694, 2, -0.25, 696, 2, -0.25, 648, 2, -0.25
*EQUATION
5
1178, 3, 1.0, 646, 3, -0.25, 694, 3, -0.25, 696, 3, -0.25, 648, 3, -0.25
*EQUATION
3
1179, 1, 1.0, 648, 1, -0.5, 696, 1, -0.5
*EQUATION
3
1179, 2, 1.0, 648, 2, -0.5, 696, 2, -0.5
*EQUATION
3
1179, 3, 1.0, 648, 3, -0.5, 696, 3, -0.5
*EQUATION
3
1183, 1, 1.0, 694, 1, -0.5, 696, 1, -0.5
*EQUATION
3
1183, 2, 1.0, 694, 2, -0.5, 696, 2, -0.5
*EQUATION
3
1183, 3, 1.0, 694, 3, -0.5, 696, 3, -0.5
*EQUATION
3
1184, 1, 1.0, 667, 1, -0.5, 715, 1, -0.5
*EQUATION
3
1184, 2, 1.0, 667, 2, -0.5, 715, 2, -0.5
*EQUATION
3
1184, 3, 1.0, 667, 3, -0.5, 715, 3, -0.5
*EQUATION
5
1185, 1, 1.0, 667, 1, -0.25, 715, 1, -0.25, 716, 1, -0.25, 668, 1, -0.25
*EQUATION
5
1185, 2, 1.0, 667, 2, -0.25, 715, 2, -0.25, 716, 2, -0.25, 668, 2, -0.25
*EQUATION
5
1185, 3, 1.0, 667, 3, -0.25, 715, 3, -0.25, 716, 3, -0.25, 668, 3, -0.25
*EQUATION
3
1186, 1, 1.0, 668, 1, -0.5, 716, 1, -0.5
*EQUATION
3
1186, 2, 1.0, 668, 2, -0.5, 716, 2, -0.5
*EQUATION
3
1186, 3, 1.0, 668, 3, -0.5, 716, 3, -0.5
*EQUATION
3
1193, 1, 1.0, 715, 1, -0.5, 716, 1, -0.5
*EQUATION
3
1193, 2, 1.0, 715, 2, -0.5, 716, 2, -0.5
*EQUATION
3
1193, 3, 1.0, 715, 3, -0.5, 716, 3, -0.5
*EQUATION
5
1198, 1, 1.0, 668, 1, -0.25, 716, 1, -0.25, 717, 1, -0.25, 669, 1, -0.25
*EQUATION
5
1198, 2, 1.0, 668, 2, -0.25, 716, 2, -0.25, 717, 2, -0.25, 669, 2, -0.25
*EQUATION
5
1198, 3, 1.0, 668, 3, -0.25, 716, 3, -0.25, 717, 3, -0.25, 669, 3, -0.25
*EQUATION
3
1199, 1, 1.0, 669, 1, -0.5, 717, 1, -0.5
*EQUATION
3
1199, 2, 1.0, 669, 2, -0.5, 717, 2, -0.5
*EQUATION
3
1199, 3, 1.0, 669, 3, -0.5, 717, 3, -0.5
*EQUATION
3
1204, 1, 1.0, 716, 1, -0.5, 717, 1, -0.5
*EQUATION
3
1204, 2, 1.0, 716, 2, -0.5, 717, 2, -0.5
*EQUATION
3
1204, 3, 1.0, 716, 3, -0.5, 717, 3, -0.5
*EQUATION
3
1214, 1, 1.0, 692, 1, -0.5, 740, 1, -0.5
*EQUATION
3
1214, 2, 1.0, 692, 2, -0.5, 740, 2, -0.5
*EQUATION
3
1214, 3, 1.0, 692, 3, -0.5, 740, 3, -0.5
*EQUATION
5
1215, 1, 1.0, 692, 1, -0.25, 740, 1, -0.25, 742, 1, -0.25, 694, 1, -0.25
*EQUATION
5
1215, 2, 1.0, 692, 2, -0.25, 740, 2, -0.25, 742, 2, -0.25, 694, 2, -0.25
*EQUATION
5
1215, 3, 1.0, 692, 3, -0.25, 740, 3, -0.25, 742, 3, -0.25, 694, 3, -0.25
*EQUATION
3
1216, 1, 1.0, 694, 1, -0.5, 742, 1, -0.5
*EQUATION
3
1216, 2, 1.0, 694, 2, -0.5, 742, 2, -0.5
*EQUATION
3
1216, 3, 1.0, 694, 3, -0.5, 742, 3, -0.5
*EQUATION
3
1221, 1, 1.0, 740, 1, -0.5, 742, 1, -0.5
*EQUATION
3
1221, 2, 1.0, 740, 2, -0.5, 742, 2, -0.5
*EQUATION
3
1221, 3, 1.0, 740, 3, -0.5, 742, 3, -0.5
*EQUATION
5
1226, 1, 1.0, 694, 1, -0.25, 742, 1, -0.25, 744, 1, -0.25, 696, 1, -0.25
*EQUATION
5
1226, 2, 1.0, 694, 2, -0.25, 742, 2, -0.25, 744, 2, -0.25, 696, 2, -0.25
*EQUATION
5
1226, 3, 1.0, 694, 3, -0.25, 742, 3, -0.25, 744, 3, -0.25, 696, 3, -0.25
*EQUATION
3
1227, 1, 1.0, 696, 1, -0.5, 744, 1, -0.5
*EQUATION
3
1227, 2, 1.0, 696, 2, -0.5, 744, 2, -0.5
*EQUATION
3
1227, 3, 1.0, 696, 3, -0.5, 744, 3, -0.5
*EQUATION
3
1231, 1, 1.0, 742, 1, -0.5, 744, 1, -0.5
*EQUATION
3
1231, 2, 1.0, 742, 2, -0.5, 744, 2, -0.5
*EQUATION
3
1231, 3, 1.0, 742, 3, -0.5, 744, 3, -0.5
*EQUATION
3
1232, 1, 1.0, 715, 1, -0.5, 763, 1, -0.5
*EQUATION
3
1232, 2, 1.0, 715, 2, -0.5, 763, 2, -0.5
*EQUATION
3
1232, 3, 1.0, 715, 3, -0.5, 763, 3, -0.5
*EQUATION
5
1233, 1, 1.0, 715, 1, -0.25, 763, 1, -0.25, 764, 1, -0.25, 716, 1, -0.25
*EQUATION
5
1233, 2, 1.0, 715, 2, -0.25, 763, 2, -0.25, 764, 2, -0.25, 716, 2, -0.25
*EQUATION
5
1233, 3, 1.0, 715, 3, -0.25, 763, 3, -0.25, 764, 3, -0.25, 716, 3, -0.25
*EQUATION
3
1234, 1, 1.0, 716, 1, -0.5, 764, 1, -0.5
*EQUATION
3
1234, 2, 1.0, 716, 2, -0.5, 764, 2, -0.5
*EQUATION
3
1234, 3, 1.0, 716, 3, -0.5, 764, 3, -0.5
*EQUATION
3
1241, 1, 1.0, 763, 1, -0.5, 764, 1, -0.5
*EQUATION
3
1241, 2, 1.0, 763, 2, -0.5, 764, 2, -0.5
*EQUATION
3
1241, 3, 1.0, 763, 3, -0.5, 764, 3, -0.5
*EQUATION
5
1246, 1, 1.0, 716, 1, -0.25, 764, 1, -0.25, 765, 1, -0.25, 717, 1, -0.25
*EQUATION
5
1246, 2, 1.0, 716, 2, -0.25, 764, 2, -0.25, 765, 2, -0.25, 717, 2, -0.25
*EQUATION
5
1246, 3, 1.0, 716, 3, -0.25, 764, 3, -0.25, 765, 3, -0.25, 717, 3, -0.25
*EQUATION
3
1247, 1, 1.0, 717, 1, -0.5, 765, 1, -0.5
*EQUATION
3
1247, 2, 1.0, 717, 2, -0.5, 765, 2, -0.5
*EQUATION
3
1247, 3, 1.0, 717, 3, -0.5, 765, 3, -0.5
*EQUATION
3
1252, 1, 1.0, 764, 1, -0.5, 765, 1, -0.5
*EQUATION
3
1252, 2, 1.0, 764, 2, -0.5, 765, 2, -0.5
*EQUATION
3
1252, 3, 1.0, 764, 3, -0.5, 765, 3, -0.5
*EQUATION
3
1262, 1, 1.0, 740, 1, -0.5, 788, 1, -0.5
*EQUATION
3
1262, 2, 1.0, 740, 2, -0.5, 788, 2, -0.5
*EQUATION
3
1262, 3, 1.0, 740, 3, -0.5, 788, 3, -0.5
*EQUATION
5
1263, 1, 1.0, 740, 1, -0.25, 788, 1, -0.25, 790, 1, -0.25, 742, 1, -0.25
*EQUATION
5
1263, 2, 1.0, 740, 2, -0.25, 788, 2, -0.25, 790, 2, -0.25, 742, 2, -0.25
*EQUATION
5
1263, 3, 1.0, 740, 3, -0.25, 788, 3, -0.25, 790, 3, -0.25, 742, 3, -0.25
*EQUATION
3
1264, 1, 1.0, 742, 1, -0.5, 790, 1, -0.5
*EQUATION
3
1264, 2, 1.0, 742, 2, -0.5, 790, 2, -0.5
*EQUATION
3
1264, 3, 1.0, 742, 3, -0.5, 790, 3, -0.5
*EQUATION
3
1269, 1, 1.0, 788, 1, -0.5, 790, 1, -0.5
*EQUATION
3
1269, 2, 1.0, 788, 2, -0.5, 790, 2, -0.5
*EQUATION
3
1269, 3, 1.0, 788, 3, -0.5, 790, 3, -0.5
*EQUATION
5
1274, 1, 1.0, 742, 1, -0.25, 790, 1, -0.25, 792, 1, -0.25, 744, 1, -0.25
*EQUATION
5
1274, 2, 1.0, 742, 2, -0.25, 790, 2, -0.25, 792, 2, -0.25, 744, 2, -0.25
*EQUATION
5
1274, 3, 1.0, 742, 3, -0.25, 790, 3, -0.25, 792, 3, -0.25, 744, 3, -0.25
*EQUATION
3
1275, 1, 1.0, 744, 1, -0.5, 792, 1, -0.5
*EQUATION
3
1275, 2, 1.0, 744, 2, -0.5, 792, 2, -0.5
*EQUATION
3
1275, 3, 1.0, 744, 3, -0.5, 792, 3, -0.5
*EQUATION
3
1279, 1, 1.0, 790, 1, -0.5, 792, 1, -0.5
*EQUATION
3
1279, 2, 1.0, 790, 2, -0.5, 792, 2, -0.5
*EQUATION
3
1279, 3, 1.0, 790, 3, -0.5, 792, 3, -0.5
*EQUATION
3
1280, 1, 1.0, 749, 1, -0.5, 750, 1, -0.5
*EQUATION
3
1280, 2, 1.0, 749, 2, -0.5, 750, 2, -0.5
*EQUATION
3
1280, 3, 1.0, 749, 3, -0.5, 750, 3, -0.5
*EQUATION
3
1281, 1, 1.0, 749, 1, -0.5, 751, 1, -0.5
*EQUATION
3
1281, 2, 1.0, 749, 2, -0.5, 751, 2, -0.5
*EQUATION
3
1281, 3, 1.0, 749, 3, -0.5, 751, 3, -0.5
*EQUATION
5
1282, 1, 1.0, 749, 1, -0.25, 751, 1, -0.25, 752, 1, -0.25, 750, 1, -0.25
*EQUATION
5
1282, 2, 1.0, 749, 2, -0.25, 751, 2, -0.25, 752, 2, -0.25, 750, 2, -0.25
*EQUATION
5
1282, 3, 1.0, 749, 3, -0.25, 751, 3, -0.25, 752, 3, -0.25, 750, 3, -0.25
*EQUATION
3
1283, 1, 1.0, 750, 1, -0.5, 752, 1, -0.5
*EQUATION
3
1283, 2, 1.0, 750, 2, -0.5, 752, 2, -0.5
*EQUATION
3
1283, 3, 1.0, 750, 3, -0.5, 752, 3, -0.5
*EQUATION
3
1284, 1, 1.0, 751, 1, -0.5, 752, 1, -0.5
*EQUATION
3
1284, 2, 1.0, 751, 2, -0.5, 752, 2, -0.5
*EQUATION
3
1284, 3, 1.0, 751, 3, -0.5, 752, 3, -0.5
*EQUATION
3
1285, 1, 1.0, 749, 1, -0.5, 797, 1, -0.5
*EQUATION
3
1285, 2, 1.0, 749, 2, -0.5, 797, 2, -0.5
*EQUATION
3
1285, 3, 1.0, 749, 3, -0.5, 797, 3, -0.5
*EQUATION
5
1286, 1, 1.0, 749, 1, -0.25, 797, 1, -0.25, 798, 1, -0.25, 750, 1, -0.25
*EQUATION
5
1286, 2, 1.0, 749, 2, -0.25, 797, 2, -0.25, 798, 2, -0.25, 750, 2, -0.25
*EQUATION
5
1286, 3, 1.0, 749, 3, -0.25, 797, 3, -0.25, 798, 3, -0.25, 750, 3, -0.25
*EQUATION
3
1287, 1, 1.0, 750, 1, -0.5, 798, 1, -0.5
*EQUATION
3
1287, 2, 1.0, 750, 2, -0.5, 798, 2, -0.5
*EQUATION
3
1287, 3, 1.0, 750, 3, -0.5, 798, 3, -0.5
*EQUATION
5
1288, 1, 1.0, 749, 1, -0.25, 797, 1, -0.25, 799, 1, -0.25, 751, 1, -0.25
*EQUATION
5
1288, 2, 1.0, 749, 2, -0.25, 797, 2, -0.25, 799, 2, -0.25, 751, 2, -0.25
*EQUATION
5
1288, 3, 1.0, 749, 3, -0.25, 797, 3, -0.25, 799, 3, -0.25, 751, 3, -0.25
*EQUATION
3
1291, 1, 1.0, 751, 1, -0.5, 799, 1, -0.5
*EQUATION
3
1291, 2, 1.0, 751, 2, -0.5, 799, 2, -0.5
*EQUATION
3
1291, 3, 1.0, 751, 3, -0.5, 799, 3, -0.5
*EQUATION
5
1292, 1, 1.0, 751, 1, -0.25, 799, 1, -0.25, 800, 1, -0.25, 752, 1, -0.25
*EQUATION
5
1292, 2, 1.0, 751, 2, -0.25, 799, 2, -0.25, 800, 2, -0.25, 752, 2, -0.25
*EQUATION
5
1292, 3, 1.0, 751, 3, -0.25, 799, 3, -0.25, 800, 3, -0.25, 752, 3, -0.25
*EQUATION
3
1293, 1, 1.0, 752, 1, -0.5, 800, 1, -0.5
*EQUATION
3
1293, 2, 1.0, 752, 2, -0.5, 800, 2, -0.5
*EQUATION
3
1293, 3, 1.0, 752, 3, -0.5, 800, 3, -0.5
*EQUATION
3
1294, 1, 1.0, 797, 1, -0.5, 798, 1, -0.5
*EQUATION
3
1294, 2, 1.0, 797, 2, -0.5, 798, 2, -0.5
*EQUATION
3
1294, 3, 1.0, 797, 3, -0.5, 798, 3, -0.5
*EQUATION
3
1295, 1, 1.0, 797, 1, -0.5, 799, 1, -0.5
*EQUATION
3
1295, 2, 1.0, 797, 2, -0.5, 799, 2, -0.5
*EQUATION
3
1295, 3, 1.0, 797, 3, -0.5, 799, 3, -0.5
*EQUATION
3
1298, 1, 1.0, 799, 1, -0.5, 800, 1, -0.5
*EQUATION
3
1298, 2, 1.0, 799, 2, -0.5, 800, 2, -0.5
*EQUATION
3
1298, 3, 1.0, 799, 3, -0.5, 800, 3, -0.5
*EQUATION
3
1299, 1, 1.0, 755, 1, -0.5, 756, 1, -0.5
*EQUATION
3
1299, 2, 1.0, 755, 2, -0.5, 756, 2, -0.5
*EQUATION
3
1299, 3, 1.0, 755, 3, -0.5, 756, 3, -0.5
*EQUATION
3
1300, 1, 1.0, 755, 1, -0.5, 758, 1, -0.5
*EQUATION
3
1300, 2, 1.0, 755, 2, -0.5, 758, 2, -0.5
*EQUATION
3
1300, 3, 1.0, 755, 3, -0.5, 758, 3, -0.5
*EQUATION
5
1301, 1, 1.0, 755, 1, -0.25, 758, 1, -0.25, 759, 1, -0.25, 756, 1, -0.25
*EQUATION
5
1301, 2, 1.0, 755, 2, -0.25, 758, 2, -0.25, 759, 2, -0.25, 756, 2, -0.25
*EQUATION
5
1301, 3, 1.0, 755, 3, -0.25, 758, 3, -0.25, 759, 3, -0.25, 756, 3, -0.25
*EQUATION
3
1302, 1, 1.0, 756, 1, -0.5, 759, 1, -0.5
*EQUATION
3
1302, 2, 1.0, 756, 2, -0.5, 759, 2, -0.5
*EQUATION
3
1302, 3, 1.0, 756, 3, -0.5, 759, 3, -0.5
*EQUATION
3
1303, 1, 1.0, 758, 1, -0.5, 759, 1, -0.5
*EQUATION
3
1303, 2, 1.0, 758, 2, -0.5, 759, 2, -0.5
*EQUATION
3
1303, 3, 1.0, 758, 3, -0.5, 759, 3, -0.5
*EQUATION
3
1304, 1, 1.0, 755, 1, -0.5, 803, 1, -0.5
*EQUATION
3
1304, 2, 1.0, 755, 2, -0.5, 803, 2, -0.5
*EQUATION
3
1304, 3, 1.0, 755, 3, -0.5, 803, 3, -0.5
*EQUATION
5
1305, 1, 1.0, 755, 1, -0.25, 803, 1, -0.25, 804, 1, -0.25, 756, 1, -0.25
*EQUATION
5
1305, 2, 1.0, 755, 2, -0.25, 803, 2, -0.25, 804, 2, -0.25, 756, 2, -0.25
*EQUATION
5
1305, 3, 1.0, 755, 3, -0.25, 803, 3, -0.25, 804, 3, -0.25, 756, 3, -0.25
*EQUATION
3
1306, 1, 1.0, 756, 1, -0.5, 804, 1, -0.5
*EQUATION
3
1306, 2, 1.0, 756, 2, -0.5, 804, 2, -0.5
*EQUATION
3
1306, 3, 1.0, 756, 3, -0.5, 804, 3, -0.5
*EQUATION
5
1307, 1, 1.0, 755, 1, -0.25, 803, 1, -0.25, 806, 1, -0.25, 758, 1, -0.25
*EQUATION
5
1307, 2, 1.0, 755, 2, -0.25, 803, 2, -0.25, 806, 2, -0.25, 758, 2, -0.25
*EQUATION
5
1307, 3, 1.0, 755, 3, -0.25, 803, 3, -0.25, 806, 3, -0.25, 758, 3, -0.25
*EQUATION
3
1310, 1, 1.0, 758, 1, -0.5, 806, 1, -0.5
*EQUATION
3
1310, 2, 1.0, 758, 2, -0.5, 806, 2, -0.5
*EQUATION
3
1310, 3, 1.0, 758, 3, -0.5, 806, 3, -0.5
*EQUATION
5
1311, 1, 1.0, 758, 1, -0.25, 806, 1, -0.25, 807, 1, -0.25, 759, 1, -0.25
*EQUATION
5
1311, 2, 1.0, 758, 2, -0.25, 806, 2, -0.25, 807, 2, -0.25, 759, 2, -0.25
*EQUATION
5
1311, 3, 1.0, 758, 3, -0.25, 806, 3, -0.25, 807, 3, -0.25, 759, 3, -0.25
*EQUATION
3
1312, 1, 1.0, 759, 1, -0.5, 807, 1, -0.5
*EQUATION
3
1312, 2, 1.0, 759, 2, -0.5, 807, 2, -0.5
*EQUATION
3
1312, 3, 1.0, 759, 3, -0.5, 807, 3, -0.5
*EQUATION
3
1313, 1, 1.0, 803, 1, -0.5, 804, 1, -0.5
*EQUATION
3
1313, 2, 1.0, 803, 2, -0.5, 804, 2, -0.5
*EQUATION
3
1313, 3, 1.0, 803, 3, -0.5, 804, 3, -0.5
*EQUATION
3
1314, 1, 1.0, 803, 1, -0.5, 806, 1, -0.5
*EQUATION
3
1314, 2, 1.0, 803, 2, -0.5, 806, 2, -0.5
*EQUATION
3
1314, 3, 1.0, 803, 3, -0.5, 806, 3, -0.5
*EQUATION
3
1317, 1, 1.0, 806, 1, -0.5, 807, 1, -0.5
*EQUATION
3
1317, 2, 1.0, 806, 2, -0.5, 807, 2, -0.5
*EQUATION
3
1317, 3, 1.0, 806, 3, -0.5, 807, 3, -0.5
*EQUATION
3
1318, 1, 1.0, 763, 1, -0.5, 811, 1, -0.5
*EQUATION
3
1318, 2, 1.0, 763, 2, -0.5, 811, 2, -0.5
*EQUATION
3
1318, 3, 1.0, 763, 3, -0.5, 811, 3, -0.5
*EQUATION
5
1319, 1, 1.0, 763, 1, -0.25, 811, 1, -0.25, 812, 1, -0.25, 764, 1, -0.25
*EQUATION
5
1319, 2, 1.0, 763, 2, -0.25, 811, 2, -0.25, 812, 2, -0.25, 764, 2, -0.25
*EQUATION
5
1319, 3, 1.0, 763, 3, -0.25, 811, 3, -0.25, 812, 3, -0.25, 764, 3, -0.25
*EQUATION
3
1320, 1, 1.0, 764, 1, -0.5, 812, 1, -0.5
*EQUATION
3
1320, 2, 1.0, 764, 2, -0.5, 812, 2, -0.5
*EQUATION
3
1320, 3, 1.0, 764, 3, -0.5, 812, 3, -0.5
*EQUATION
3
1327, 1, 1.0, 811, 1, -0.5, 812, 1, -0.5
*EQUATION
3
1327, 2, 1.0, 811, 2, -0.5, 812, 2, -0.5
*EQUATION
3
1327, 3, 1.0, 811, 3, -0.5, 812, 3, -0.5
*EQUATION
5
1332, 1, 1.0, 764, 1, -0.25, 812, 1, -0.25, 813, 1, -0.25, 765, 1, -0.25
*EQUATION
5
1332, 2, 1.0, 764, 2, -0.25, 812, 2, -0.25, 813, 2, -0.25, 765, 2, -0.25
*EQUATION
5
1332, 3, 1.0, 764, 3, -0.25, 812, 3, -0.25, 813, 3, -0.25, 765, 3, -0.25
*EQUATION
3
1333, 1, 1.0, 765, 1, -0.5, 813, 1, -0.5
*EQUATION
3
1333, 2, 1.0, 765, 2, -0.5, 813, 2, -0.5
*EQUATION
3
1333, 3, 1.0, 765, 3, -0.5, 813, 3, -0.5
*EQUATION
3
1338, 1, 1.0, 812, 1, -0.5, 813, 1, -0.5
*EQUATION
3
1338, 2, 1.0, 812, 2, -0.5, 813, 2, -0.5
*EQUATION
3
1338, 3, 1.0, 812, 3, -0.5, 813, 3, -0.5
*EQUATION
3
1348, 1, 1.0, 788, 1, -0.5, 836, 1, -0.5
*EQUATION
3
1348, 2, 1.0, 788, 2, -0.5, 836, 2, -0.5
*EQUATION
3
1348, 3, 1.0, 788, 3, -0.5, 836, 3, -0.5
*EQUATION
5
1349, 1, 1.0, 788, 1, -0.25, 836, 1, -0.25, 838, 1, -0.25, 790, 1, -0.25
*EQUATION
5
1349, 2, 1.0, 788, 2, -0.25, 836, 2, -0.25, 838, 2, -0.25, 790, 2, -0.25
*EQUATION
5
1349, 3, 1.0, 788, 3, -0.25, 836, 3, -0.25, 838, 3, -0.25, 790, 3, -0.25
*EQUATION
3
1350, 1, 1.0, 790, 1, -0.5, 838, 1, -0.5
*EQUATION
3
1350, 2, 1.0, 790, 2, -0.5, 838, 2, -0.5
*EQUATION
3
1350, 3, 1.0, 790, 3, -0.5, 838, 3, -0.5
*EQUATION
3
1355, 1, 1.0, 836, 1, -0.5, 838, 1, -0.5
*EQUATION
3
1355, 2, 1.0, 836, 2, -0.5, 838, 2, -0.5
*EQUATION
3
1355, 3, 1.0, 836, 3, -0.5, 838, 3, -0.5
*EQUATION
5
1360, 1, 1.0, 790, 1, -0.25, 838, 1, -0.25, 840, 1, -0.25, 792, 1, -0.25
*EQUATION
5
1360, 2, 1.0, 790, 2, -0.25, 838, 2, -0.25, 840, 2, -0.25, 792, 2, -0.25
*EQUATION
5
1360, 3, 1.0, 790, 3, -0.25, 838, 3, -0.25, 840, 3, -0.25, 792, 3, -0.25
*EQUATION
3
1361, 1, 1.0, 792, 1, -0.5, 840, 1, -0.5
*EQUATION
3
1361, 2, 1.0, 792, 2, -0.5, 840, 2, -0.5
*EQUATION
3
1361, 3, 1.0, 792, 3, -0.5, 840, 3, -0.5
*EQUATION
3
1365, 1, 1.0, 838, 1, -0.5, 840, 1, -0.5
*EQUATION
3
1365, 2, 1.0, 838, 2, -0.5, 840, 2, -0.5
*EQUATION
3
1365, 3, 1.0, 838, 3, -0.5, 840, 3, -0.5
*EQUATION
3
1366, 1, 1.0, 797, 1, -0.5, 845, 1, -0.5
*EQUATION
3
1366, 2, 1.0, 797, 2, -0.5, 845, 2, -0.5
*EQUATION
3
1366, 3, 1.0, 797, 3, -0.5, 845, 3, -0.5
*EQUATION
5
1367, 1, 1.0, 797, 1, -0.25, 845, 1, -0.25, 846, 1, -0.25, 798, 1, -0.25
*EQUATION
5
1367, 2, 1.0, 797, 2, -0.25, 845, 2, -0.25, 846, 2, -0.25, 798, 2, -0.25
*EQUATION
5
1367, 3, 1.0, 797, 3, -0.25, 845, 3, -0.25, 846, 3, -0.25, 798, 3, -0.25
*EQUATION
3
1368, 1, 1.0, 798, 1, -0.5, 846, 1, -0.5
*EQUATION
3
1368, 2, 1.0, 798, 2, -0.5, 846, 2, -0.5
*EQUATION
3
1368, 3, 1.0, 798, 3, -0.5, 846, 3, -0.5
*EQUATION
5
1369, 1, 1.0, 797, 1, -0.25, 845, 1, -0.25, 847, 1, -0.25, 799, 1, -0.25
*EQUATION
5
1369, 2, 1.0, 797, 2, -0.25, 845, 2, -0.25, 847, 2, -0.25, 799, 2, -0.25
*EQUATION
5
1369, 3, 1.0, 797, 3, -0.25, 845, 3, -0.25, 847, 3, -0.25, 799, 3, -0.25
*EQUATION
3
1372, 1, 1.0, 799, 1, -0.5, 847, 1, -0.5
*EQUATION
3
1372, 2, 1.0, 799, 2, -0.5, 847, 2, -0.5
*EQUATION
3
1372, 3, 1.0, 799, 3, -0.5, 847, 3, -0.5
*EQUATION
5
1373, 1, 1.0, 799, 1, -0.25, 847, 1, -0.25, 848, 1, -0.25, 800, 1, -0.25
*EQUATION
5
1373, 2, 1.0, 799, 2, -0.25, 847, 2, -0.25, 848, 2, -0.25, 800, 2, -0.25
*EQUATION
5
1373, 3, 1.0, 799, 3, -0.25, 847, 3, -0.25, 848, 3, -0.25, 800, 3, -0.25
*EQUATION
3
1374, 1, 1.0, 800, 1, -0.5, 848, 1, -0.5
*EQUATION
3
1374, 2, 1.0, 800, 2, -0.5, 848, 2, -0.5
*EQUATION
3
1374, 3, 1.0, 800, 3, -0.5, 848, 3, -0.5
*EQUATION
3
1375, 1, 1.0, 845, 1, -0.5, 846, 1, -0.5
*EQUATION
3
1375, 2, 1.0, 845, 2, -0.5, 846, 2, -0.5
*EQUATION
3
1375, 3, 1.0, 845, 3, -0.5, 846, 3, -0.5
*EQUATION
3
1376, 1, 1.0, 845, 1, -0.5, 847, 1, -0.5
*EQUATION
3
1376, 2, 1.0, 845, 2, -0.5, 847, 2, -0.5
*EQUATION
3
1376, 3, 1.0, 845, 3, -0.5, 847, 3, -0.5
*EQUATION
5
1377, 1, 1.0, 845, 1, -0.25, 847, 1, -0.25, 848, 1, -0.25, 846, 1, -0.25
*EQUATION
5
1377, 2, 1.0, 845, 2, -0.25, 847, 2, -0.25, 848, 2, -0.25, 846, 2, -0.25
*EQUATION
5
1377, 3, 1.0, 845, 3, -0.25, 847, 3, -0.25, 848, 3, -0.25, 846, 3, -0.25
*EQUATION
3
1378, 1, 1.0, 846, 1, -0.5, 848, 1, -0.5
*EQUATION
3
1378, 2, 1.0, 846, 2, -0.5, 848, 2, -0.5
*EQUATION
3
1378, 3, 1.0, 846, 3, -0.5, 848, 3, -0.5
*EQUATION
3
1379, 1, 1.0, 847, 1, -0.5, 848, 1, -0.5
*EQUATION
3
1379, 2, 1.0, 847, 2, -0.5, 848, 2, -0.5
*EQUATION
3
1379, 3, 1.0, 847, 3, -0.5, 848, 3, -0.5
*EQUATION
3
1380, 1, 1.0, 803, 1, -0.5, 851, 1, -0.5
*EQUATION
3
1380, 2, 1.0, 803, 2, -0.5, 851, 2, -0.5
*EQUATION
3
1380, 3, 1.0, 803, 3, -0.5, 851, 3, -0.5
*EQUATION
5
1381, 1, 1.0, 803, 1, -0.25, 851, 1, -0.25, 852, 1, -0.25, 804, 1, -0.25
*EQUATION
5
1381, 2, 1.0, 803, 2, -0.25, 851, 2, -0.25, 852, 2, -0.25, 804, 2, -0.25
*EQUATION
5
1381, 3, 1.0, 803, 3, -0.25, 851, 3, -0.25, 852, 3, -0.25, 804, 3, -0.25
*EQUATION
3
1382, 1, 1.0, 804, 1, -0.5, 852, 1, -0.5
*EQUATION
3
1382, 2, 1.0, 804, 2, -0.5, 852, 2, -0.5
*EQUATION
3
1382, 3, 1.0, 804, 3, -0.5, 852, 3, -0.5
*EQUATION
5
1383, 1, 1.0, 803, 1, -0.25, 851, 1, -0.25, 854, 1, -0.25, 806, 1, -0.25
*EQUATION
5
1383, 2, 1.0, 803, 2, -0.25, 851, 2, -0.25, 854, 2, -0.25, 806, 2, -0.25
*EQUATION
5
1383, 3, 1.0, 803, 3, -0.25, 851, 3, -0.25, 854, 3, -0.25, 806, 3, -0.25
*EQUATION
3
1386, 1, 1.0, 806, 1, -0.5, 854, 1, -0.5
*EQUATION
3
1386, 2, 1.0, 806, 2, -0.5, 854, 2, -0.5
*EQUATION
3
1386, 3, 1.0, 806, 3, -0.5, 854, 3, -0.5
*EQUATION
5
1387, 1, 1.0, 806, 1, -0.25, 854, 1, -0.25, 855, 1, -0.25, 807, 1, -0.25
*EQUATION
5
1387, 2, 1.0, 806, 2, -0.25, 854, 2, -0.25, 855, 2, -0.25, 807, 2, -0.25
*EQUATION
5
1387, 3, 1.0, 806, 3, -0.25, 854, 3, -0.25, 855, 3, -0.25, 807, 3, -0.25
*EQUATION
3
1388, 1, 1.0, 807, 1, -0.5, 855, 1, -0.5
*EQUATION
3
1388, 2, 1.0, 807, 2, -0.5, 855, 2, -0.5
*EQUATION
3
1388, 3, 1.0, 807, 3, -0.5, 855, 3, -0.5
*EQUATION
3
1389, 1, 1.0, 851, 1, -0.5, 852, 1, -0.5
*EQUATION
3
1389, 2, 1.0, 851, 2, -0.5, 852, 2, -0.5
*EQUATION
3
1389, 3, 1.0, 851, 3, -0.5, 852, 3, -0.5
*EQUATION
3
1390, 1, 1.0, 851, 1, -0.5, 854, 1, -0.5
*EQUATION
3
1390, 2, 1.0, 851, 2, -0.5, 854, 2, -0.5
*EQUATION
3
1390, 3, 1.0, 851, 3, -0.5, 854, 3, -0.5
*EQUATION
3
1393, 1, 1.0, 854, 1, -0.5, 855, 1, -0.5
*EQUATION
3
1393, 2, 1.0, 854, 2, -0.5, 855, 2, -0.5
*EQUATION
3
1393, 3, 1.0, 854, 3, -0.5, 855, 3, -0.5
*EQUATION
3
1394, 1, 1.0, 811, 1, -0.5, 859, 1, -0.5
*EQUATION
3
1394, 2, 1.0, 811, 2, -0.5, 859, 2, -0.5
*EQUATION
3
1394, 3, 1.0, 811, 3, -0.5, 859, 3, -0.5
*EQUATION
5
1395, 1, 1.0, 811, 1, -0.25, 859, 1, -0.25, 860, 1, -0.25, 812, 1, -0.25
*EQUATION
5
1395, 2, 1.0, 811, 2, -0.25, 859, 2, -0.25, 860, 2, -0.25, 812, 2, -0.25
*EQUATION
5
1395, 3, 1.0, 811, 3, -0.25, 859, 3, -0.25, 860, 3, -0.25, 812, 3, -0.25
*EQUATION
3
1396, 1, 1.0, 812, 1, -0.5, 860, 1, -0.5
*EQUATION
3
1396, 2, 1.0, 812, 2, -0.5, 860, 2, -0.5
*EQUATION
3
1396, 3, 1.0, 812, 3, -0.5, 860, 3, -0.5
*EQUATION
3
1403, 1, 1.0, 859, 1, -0.5, 860, 1, -0.5
*EQUATION
3
1403, 2, 1.0, 859, 2, -0.5, 860, 2, -0.5
*EQUATION
3
1403, 3, 1.0, 859, 3, -0.5, 860, 3, -0.5
*EQUATION
5
1408, 1, 1.0, 812, 1, -0.25, 860, 1, -0.25, 861, 1, -0.25, 813, 1, -0.25
*EQUATION
5
1408, 2, 1.0, 812, 2, -0.25, 860, 2, -0.25, 861, 2, -0.25, 813, 2, -0.25
*EQUATION
5
1408, 3, 1.0, 812, 3, -0.25, 860, 3, -0.25, 861, 3, -0.25, 813, 3, -0.25
*EQUATION
3
1409, 1, 1.0, 813, 1, -0.5, 861, 1, -0.5
*EQUATION
3
1409, 2, 1.0, 813, 2, -0.5, 861, 2, -0.5
*EQUATION
3
1409, 3, 1.0, 813, 3, -0.5, 861, 3, -0.5
*EQUATION
3
1414, 1, 1.0, 860, 1, -0.5, 861, 1, -0.5
*EQUATION
3
1414, 2, 1.0, 860, 2, -0.5, 861, 2, -0.5
*EQUATION
3
1414, 3, 1.0, 860, 3, -0.5, 861, 3, -0.5
*EQUATION
3
1424, 1, 1.0, 836, 1, -0.5, 884, 1, -0.5
*EQUATION
3
1424, 2, 1.0, 836, 2, -0.5, 884, 2, -0.5
*EQUATION
3
1424, 3, 1.0, 836, 3, -0.5, 884, 3, -0.5
*EQUATION
5
1425, 1, 1.0, 836, 1, -0.25, 884, 1, -0.25, 886, 1, -0.25, 838, 1, -0.25
*EQUATION
5
1425, 2, 1.0, 836, 2, -0.25, 884, 2, -0.25, 886, 2, -0.25, 838, 2, -0.25
*EQUATION
5
1425, 3, 1.0, 836, 3, -0.25, 884, 3, -0.25, 886, 3, -0.25, 838, 3, -0.25
*EQUATION
3
1426, 1, 1.0, 838, 1, -0.5, 886, 1, -0.5
*EQUATION
3
1426, 2, 1.0, 838, 2, -0.5, 886, 2, -0.5
*EQUATION
3
1426, 3, 1.0, 838, 3, -0.5, 886, 3, -0.5
*EQUATION
3
1431, 1, 1.0, 884, 1, -0.5, 886, 1, -0.5
*EQUATION
3
1431, 2, 1.0, 884, 2, -0.5, 886, 2, -0.5
*EQUATION
3
1431, 3, 1.0, 884, 3, -0.5, 886, 3, -0.5
*EQUATION
5
1436, 1, 1.0, 838, 1, -0.25, 886, 1, -0.25, 888, 1, -0.25, 840, 1, -0.25
*EQUATION
5
1436, 2, 1.0, 838, 2, -0.25, 886, 2, -0.25, 888, 2, -0.25, 840, 2, -0.25
*EQUATION
5
1436, 3, 1.0, 838, 3, -0.25, 886, 3, -0.25, 888, 3, -0.25, 840, 3, -0.25
*EQUATION
3
1437, 1, 1.0, 840, 1, -0.5, 888, 1, -0.5
*EQUATION
3
1437, 2, 1.0, 840, 2, -0.5, 888, 2, -0.5
*EQUATION
3
1437, 3, 1.0, 840, 3, -0.5, 888, 3, -0.5
*EQUATION
3
1441, 1, 1.0, 886, 1, -0.5, 888, 1, -0.5
*EQUATION
3
1441, 2, 1.0, 886, 2, -0.5, 888, 2, -0.5
*EQUATION
3
1441, 3, 1.0, 886, 3, -0.5, 888, 3, -0.5
*EQUATION
3
1442, 1, 1.0, 851, 1, -0.5, 899, 1, -0.5
*EQUATION
3
1442, 2, 1.0, 851, 2, -0.5, 899, 2, -0.5
*EQUATION
3
1442, 3, 1.0, 851, 3, -0.5, 899, 3, -0.5
*EQUATION
5
1443, 1, 1.0, 851, 1, -0.25, 899, 1, -0.25, 900, 1, -0.25, 852, 1, -0.25
*EQUATION
5
1443, 2, 1.0, 851, 2, -0.25, 899, 2, -0.25, 900, 2, -0.25, 852, 2, -0.25
*EQUATION
5
1443, 3, 1.0, 851, 3, -0.25, 899, 3, -0.25, 900, 3, -0.25, 852, 3, -0.25
*EQUATION
3
1444, 1, 1.0, 852, 1, -0.5, 900, 1, -0.5
*EQUATION
3
1444, 2, 1.0, 852, 2, -0.5, 900, 2, -0.5
*EQUATION
3
1444, 3, 1.0, 852, 3, -0.5, 900, 3, -0.5
*EQUATION
5
1445, 1, 1.0, 851, 1, -0.25, 899, 1, -0.25, 902, 1, -0.25, 854, 1, -0.25
*EQUATION
5
1445, 2, 1.0, 851, 2, -0.25, 899, 2, -0.25, 902, 2, -0.25, 854, 2, -0.25
*EQUATION
5
1445, 3, 1.0, 851, 3, -0.25, 899, 3, -0.25, 902, 3, -0.25, 854, 3, -0.25
*EQUATION
3
1448, 1, 1.0, 854, 1, -0.5, 902, 1, -0.5
*EQUATION
3
1448, 2, 1.0, 854, 2, -0.5, 902, 2, -0.5
*EQUATION
3
1448, 3, 1.0, 854, 3, -0.5, 902, 3, -0.5
*EQUATION
5
1449, 1, 1.0, 854, 1, -0.25, 902, 1, -0.25, 903, 1, -0.25, 855, 1, -0.25
*EQUATION
5
1449, 2, 1.0, 854, 2, -0.25, 902, 2, -0.25, 903, 2, -0.25, 855, 2, -0.25
*EQUATION
5
1449, 3, 1.0, 854, 3, -0.25, 902, 3, -0.25, 903, 3, -0.25, 855, 3, -0.25
*EQUATION
3
1450, 1, 1.0, 855, 1, -0.5, 903, 1, -0.5
*EQUATION
3
1450, 2, 1.0, 855, 2, -0.5, 903, 2, -0.5
*EQUATION
3
1450, 3, 1.0, 855, 3, -0.5, 903, 3, -0.5
*EQUATION
3
1451, 1, 1.0, 899, 1, -0.5, 900, 1, -0.5
*EQUATION
3
1451, 2, 1.0, 899, 2, -0.5, 900, 2, -0.5
*EQUATION
3
1451, 3, 1.0, 899, 3, -0.5, 900, 3, -0.5
*EQUATION
3
1452, 1, 1.0, 899, 1, -0.5, 902, 1, -0.5
*EQUATION
3
1452, 2, 1.0, 899, 2, -0.5, 902, 2, -0.5
*EQUATION
3
1452, 3, 1.0, 899, 3, -0.5, 902, 3, -0.5
*EQUATION
3
1455, 1, 1.0, 902, 1, -0.5, 903, 1, -0.5
*EQUATION
3
1455, 2, 1.0, 902, 2, -0.5, 903, 2, -0.5
*EQUATION
3
1455, 3, 1.0, 902, 3, -0.5, 903, 3, -0.5
*EQUATION
3
1456, 1, 1.0, 859, 1, -0.5, 907, 1, -0.5
*EQUATION
3
1456, 2, 1.0, 859, 2, -0.5, 907, 2, -0.5
*EQUATION
3
1456, 3, 1.0, 859, 3, -0.5, 907, 3, -0.5
*EQUATION
5
1457, 1, 1.0, 859, 1, -0.25, 907, 1, -0.25, 908, 1, -0.25, 860, 1, -0.25
*EQUATION
5
1457, 2, 1.0, 859, 2, -0.25, 907, 2, -0.25, 908, 2, -0.25, 860, 2, -0.25
*EQUATION
5
1457, 3, 1.0, 859, 3, -0.25, 907, 3, -0.25, 908, 3, -0.25, 860, 3, -0.25
*EQUATION
3
1458, 1, 1.0, 860, 1, -0.5, 908, 1, -0.5
*EQUATION
3
1458, 2, 1.0, 860, 2, -0.5, 908, 2, -0.5
*EQUATION
3
1458, 3, 1.0, 860, 3, -0.5, 908, 3, -0.5
*EQUATION
3
1465, 1, 1.0, 907, 1, -0.5, 908, 1, -0.5
*EQUATION
3
1465, 2, 1.0, 907, 2, -0.5, 908, 2, -0.5
*EQUATION
3
1465, 3, 1.0, 907, 3, -0.5, 908, 3, -0.5
*EQUATION
5
1470, 1, 1.0, 860, 1, -0.25, 908, 1, -0.25, 909, 1, -0.25, 861, 1, -0.25
*EQUATION
5
1470, 2, 1.0, 860, 2, -0.25, 908, 2, -0.25, 909, 2, -0.25, 861, 2, -0.25
*EQUATION
5
1470, 3, 1.0, 860, 3, -0.25, 908, 3, -0.25, 909, 3, -0.25, 861, 3, -0.25
*EQUATION
3
1471, 1, 1.0, 861, 1, -0.5, 909, 1, -0.5
*EQUATION
3
1471, 2, 1.0, 861, 2, -0.5, 909, 2, -0.5
*EQUATION
3
1471, 3, 1.0, 861, 3, -0.5, 909, 3, -0.5
*EQUATION
3
1476, 1, 1.0, 908, 1, -0.5, 909, 1, -0.5
*EQUATION
3
1476, 2, 1.0, 908, 2, -0.5, 909, 2, -0.5
*EQUATION
3
1476, 3, 1.0, 908, 3, -0.5, 909, 3, -0.5
*BOUNDARY
CLAMP, 1, 3, 0.0
*STEP
*STATIC
*CLOAD
887, 3, -357.142857143
888, 3, -357.142857143
891, 3, -357.142857143
894, 3, -357.142857143
896, 3, -357.142857143
898, 3, -357.142857143
900, 3, -357.142857143
903, 3, -357.142857143
906, 3, -357.142857143
909, 3, -357.142857143
912, 3, -357.142857143
1440, 3, -357.142857143
1454, 3, -357.142857143
1478, 3, -357.142857143
*NODE FILE
U
*EL FILE
S, ENER
*NODE PRINT, NSET=TIP_TOP
U
*NODE PRINT, NSET=CLAMP
RF
*EL PRINT, ELSET=EALL
ELSE
*ENERGY PRINT
*END STEP
