*HEADING
T07 S-LIN hanging 8-split zz cycle 1
units: mm, N, s, MPa. Material is illustrative steel, not a coupon card.
E=210000.0 nu=0.3. load -5000.0 N on TIP_TOP.
*NODE, NSET=NALL
1, 0, -18, 0
2, 111.111111111, -17.3333333333, 0
3, 111.111111111, 0, 0
4, 0, 0, 0
5, 0, -18, 28
6, 111.111111111, -17.3333333333, 28
7, 111.111111111, 0, 28
8, 0, 0, 28
9, 0, -18, 56
10, 111.111111111, -17.3333333333, 56
11, 111.111111111, 0, 56
12, 0, 0, 56
13, 0, -18, 84
14, 111.111111111, -17.3333333333, 84
15, 111.111111111, 0, 84
16, 0, 0, 84
17, 0, -18, 112
18, 111.111111111, -17.3333333333, 112
19, 111.111111111, 0, 112
20, 0, 0, 112
** ... 1498 like lines cut
*ELEMENT, TYPE=C3D8, ELSET=EALL
1, 1, 2, 3, 4, 5, 6, 7, 8
2, 5, 6, 7, 8, 9, 10, 11, 12
3, 9, 10, 11, 12, 13, 14, 15, 16
4, 13, 14, 15, 16, 17, 18, 19, 20
5, 17, 18, 19, 20, 21, 22, 23, 24
6, 4, 3, 25, 26, 8, 7, 27, 28
7, 8, 7, 27, 28, 12, 11, 29, 30
8, 12, 11, 29, 30, 16, 15, 31, 32
9, 16, 15, 31, 32, 20, 19, 33, 34
10, 20, 19, 33, 34, 24, 23, 35, 36
11, 37, 38, 39, 40, 41, 42, 43, 44
12, 41, 42, 43, 44, 45, 46, 47, 48
13, 40, 39, 49, 50, 44, 43, 51, 52
14, 44, 43, 51, 52, 48, 47, 53, 54
15, 50, 49, 55, 56, 52, 51, 57, 58
16, 52, 51, 57, 58, 54, 53, 59, 60
17, 56, 55, 22, 21, 58, 57, 61, 62
18, 58, 57, 61, 62, 60, 59, 63, 64
19, 21, 22, 23, 24, 62, 61, 65, 66
20, 62, 61, 65, 66, 64, 63, 67, 68
** ... 919 like lines cut
*NSET, NSET=CLAMP
1, 4, 5, 8, 9, 12, 13, 16, 17, 20, 21, 24, 26, 28, 30, 32
34, 36, 37, 40, 41, 44, 45, 48, 50, 52, 54, 56, 58, 60, 62, 64
66, 68, 70, 72, 74, 76, 78, 80, 82, 84, 86, 88, 90, 92, 94, 96
*NSET, NSET=TIP_TOP
887, 888, 891, 894, 896, 898, 900, 903, 906, 909, 912, 1503, 1517
*MATERIAL, NAME=STEEL
*ELASTIC
210000, 0.3
*SOLID SECTION, ELSET=EALL, MATERIAL=STEEL
*EQUATION
3
913, 1, 1.0, 2, 1, -0.5, 6, 1, -0.5
*EQUATION
3
913, 2, 1.0, 2, 2, -0.5, 6, 2, -0.5
*EQUATION
3
913, 3, 1.0, 2, 3, -0.5, 6, 3, -0.5
*EQUATION
3
914, 1, 1.0, 2, 1, -0.5, 3, 1, -0.5
*EQUATION
3
914, 2, 1.0, 2, 2, -0.5, 3, 2, -0.5
*EQUATION
3
914, 3, 1.0, 2, 3, -0.5, 3, 3, -0.5
*EQUATION
5
915, 1, 1.0, 2, 1, -0.25, 3, 1, -0.25, 7, 1, -0.25, 6, 1, -0.25
*EQUATION
5
915, 2, 1.0, 2, 2, -0.25, 3, 2, -0.25, 7, 2, -0.25, 6, 2, -0.25
*EQUATION
5
915, 3, 1.0, 2, 3, -0.25, 3, 3, -0.25, 7, 3, -0.25, 6, 3, -0.25
*EQUATION
3
916, 1, 1.0, 6, 1, -0.5, 7, 1, -0.5
*EQUATION
3
916, 2, 1.0, 6, 2, -0.5, 7, 2, -0.5
*EQUATION
3
916, 3, 1.0, 6, 3, -0.5, 7, 3, -0.5
*EQUATION
3
917, 1, 1.0, 3, 1, -0.5, 7, 1, -0.5
*EQUATION
3
917, 2, 1.0, 3, 2, -0.5, 7, 2, -0.5
*EQUATION
3
917, 3, 1.0, 3, 3, -0.5, 7, 3, -0.5
*EQUATION
3
920, 1, 1.0, 6, 1, -0.5, 99, 1, -0.5
*EQUATION
3
920, 2, 1.0, 6, 2, -0.5, 99, 2, -0.5
*EQUATION
3
920, 3, 1.0, 6, 3, -0.5, 99, 3, -0.5
*EQUATION
5
923, 1, 1.0, 6, 1, -0.25, 99, 1, -0.25, 100, 1, -0.25, 7, 1, -0.25
*EQUATION
5
923, 2, 1.0, 6, 2, -0.25, 99, 2, -0.25, 100, 2, -0.25, 7, 2, -0.25
*EQUATION
5
923, 3, 1.0, 6, 3, -0.25, 99, 3, -0.25, 100, 3, -0.25, 7, 3, -0.25
*EQUATION
3
926, 1, 1.0, 7, 1, -0.5, 100, 1, -0.5
*EQUATION
3
926, 2, 1.0, 7, 2, -0.5, 100, 2, -0.5
*EQUATION
3
926, 3, 1.0, 7, 3, -0.5, 100, 3, -0.5
*EQUATION
3
927, 1, 1.0, 97, 1, -0.5, 99, 1, -0.5
*EQUATION
3
927, 2, 1.0, 97, 2, -0.5, 99, 2, -0.5
*EQUATION
3
927, 3, 1.0, 97, 3, -0.5, 99, 3, -0.5
*EQUATION
3
928, 1, 1.0, 97, 1, -0.5, 98, 1, -0.5
*EQUATION
3
928, 2, 1.0, 97, 2, -0.5, 98, 2, -0.5
*EQUATION
3
928, 3, 1.0, 97, 3, -0.5, 98, 3, -0.5
*EQUATION
5
929, 1, 1.0, 97, 1, -0.25, 98, 1, -0.25, 100, 1, -0.25, 99, 1, -0.25
*EQUATION
5
929, 2, 1.0, 97, 2, -0.25, 98, 2, -0.25, 100, 2, -0.25, 99, 2, -0.25
*EQUATION
5
929, 3, 1.0, 97, 3, -0.25, 98, 3, -0.25, 100, 3, -0.25, 99, 3, -0.25
*EQUATION
3
930, 1, 1.0, 99, 1, -0.5, 100, 1, -0.5
*EQUATION
3
930, 2, 1.0, 99, 2, -0.5, 100, 2, -0.5
*EQUATION
3
930, 3, 1.0, 99, 3, -0.5, 100, 3, -0.5
*EQUATION
3
931, 1, 1.0, 98, 1, -0.5, 100, 1, -0.5
*EQUATION
3
931, 2, 1.0, 98, 2, -0.5, 100, 2, -0.5
*EQUATION
3
931, 3, 1.0, 98, 3, -0.5, 100, 3, -0.5
*EQUATION
3
932, 1, 1.0, 3, 1, -0.5, 25, 1, -0.5
*EQUATION
3
932, 2, 1.0, 3, 2, -0.5, 25, 2, -0.5
*EQUATION
3
932, 3, 1.0, 3, 3, -0.5, 25, 3, -0.5
*EQUATION
5
933, 1, 1.0, 3, 1, -0.25, 25, 1, -0.25, 27, 1, -0.25, 7, 1, -0.25
*EQUATION
5
933, 2, 1.0, 3, 2, -0.25, 25, 2, -0.25, 27, 2, -0.25, 7, 2, -0.25
*EQUATION
5
933, 3, 1.0, 3, 3, -0.25, 25, 3, -0.25, 27, 3, -0.25, 7, 3, -0.25
*EQUATION
3
934, 1, 1.0, 7, 1, -0.5, 27, 1, -0.5
*EQUATION
3
934, 2, 1.0, 7, 2, -0.5, 27, 2, -0.5
*EQUATION
3
934, 3, 1.0, 7, 3, -0.5, 27, 3, -0.5
*EQUATION
3
935, 1, 1.0, 25, 1, -0.5, 27, 1, -0.5
*EQUATION
3
935, 2, 1.0, 25, 2, -0.5, 27, 2, -0.5
*EQUATION
3
935, 3, 1.0, 25, 3, -0.5, 27, 3, -0.5
*EQUATION
5
938, 1, 1.0, 7, 1, -0.25, 100, 1, -0.25, 110, 1, -0.25, 27, 1, -0.25
*EQUATION
5
938, 2, 1.0, 7, 2, -0.25, 100, 2, -0.25, 110, 2, -0.25, 27, 2, -0.25
*EQUATION
5
938, 3, 1.0, 7, 3, -0.25, 100, 3, -0.25, 110, 3, -0.25, 27, 3, -0.25
*EQUATION
3
941, 1, 1.0, 27, 1, -0.5, 110, 1, -0.5
*EQUATION
3
941, 2, 1.0, 27, 2, -0.5, 110, 2, -0.5
*EQUATION
3
941, 3, 1.0, 27, 3, -0.5, 110, 3, -0.5
*EQUATION
3
942, 1, 1.0, 98, 1, -0.5, 109, 1, -0.5
*EQUATION
3
942, 2, 1.0, 98, 2, -0.5, 109, 2, -0.5
*EQUATION
3
942, 3, 1.0, 98, 3, -0.5, 109, 3, -0.5
*EQUATION
5
943, 1, 1.0, 98, 1, -0.25, 109, 1, -0.25, 110, 1, -0.25, 100, 1, -0.25
*EQUATION
5
943, 2, 1.0, 98, 2, -0.25, 109, 2, -0.25, 110, 2, -0.25, 100, 2, -0.25
*EQUATION
5
943, 3, 1.0, 98, 3, -0.25, 109, 3, -0.25, 110, 3, -0.25, 100, 3, -0.25
*EQUATION
3
944, 1, 1.0, 100, 1, -0.5, 110, 1, -0.5
*EQUATION
3
944, 2, 1.0, 100, 2, -0.5, 110, 2, -0.5
*EQUATION
3
944, 3, 1.0, 100, 3, -0.5, 110, 3, -0.5
*EQUATION
3
945, 1, 1.0, 109, 1, -0.5, 110, 1, -0.5
*EQUATION
3
945, 2, 1.0, 109, 2, -0.5, 110, 2, -0.5
*EQUATION
3
945, 3, 1.0, 109, 3, -0.5, 110, 3, -0.5
*EQUATION
3
946, 1, 1.0, 585, 1, -0.5, 587, 1, -0.5
*EQUATION
3
946, 2, 1.0, 585, 2, -0.5, 587, 2, -0.5
*EQUATION
3
946, 3, 1.0, 585, 3, -0.5, 587, 3, -0.5
*EQUATION
3
947, 1, 1.0, 585, 1, -0.5, 586, 1, -0.5
*EQUATION
3
947, 2, 1.0, 585, 2, -0.5, 586, 2, -0.5
*EQUATION
3
947, 3, 1.0, 585, 3, -0.5, 586, 3, -0.5
*EQUATION
5
948, 1, 1.0, 585, 1, -0.25, 586, 1, -0.25, 588, 1, -0.25, 587, 1, -0.25
*EQUATION
5
948, 2, 1.0, 585, 2, -0.25, 586, 2, -0.25, 588, 2, -0.25, 587, 2, -0.25
*EQUATION
5
948, 3, 1.0, 585, 3, -0.25, 586, 3, -0.25, 588, 3, -0.25, 587, 3, -0.25
*EQUATION
3
949, 1, 1.0, 587, 1, -0.5, 588, 1, -0.5
*EQUATION
3
949, 2, 1.0, 587, 2, -0.5, 588, 2, -0.5
*EQUATION
3
949, 3, 1.0, 587, 3, -0.5, 588, 3, -0.5
*EQUATION
3
950, 1, 1.0, 586, 1, -0.5, 588, 1, -0.5
*EQUATION
3
950, 2, 1.0, 586, 2, -0.5, 588, 2, -0.5
*EQUATION
3
950, 3, 1.0, 586, 3, -0.5, 588, 3, -0.5
*EQUATION
3
951, 1, 1.0, 585, 1, -0.5, 633, 1, -0.5
*EQUATION
3
951, 2, 1.0, 585, 2, -0.5, 633, 2, -0.5
*EQUATION
3
951, 3, 1.0, 585, 3, -0.5, 633, 3, -0.5
*EQUATION
3
953, 1, 1.0, 587, 1, -0.5, 635, 1, -0.5
*EQUATION
3
953, 2, 1.0, 587, 2, -0.5, 635, 2, -0.5
*EQUATION
3
953, 3, 1.0, 587, 3, -0.5, 635, 3, -0.5
*EQUATION
5
954, 1, 1.0, 585, 1, -0.25, 633, 1, -0.25, 634, 1, -0.25, 586, 1, -0.25
*EQUATION
5
954, 2, 1.0, 585, 2, -0.25, 633, 2, -0.25, 634, 2, -0.25, 586, 2, -0.25
*EQUATION
5
954, 3, 1.0, 585, 3, -0.25, 633, 3, -0.25, 634, 3, -0.25, 586, 3, -0.25
*EQUATION
5
956, 1, 1.0, 587, 1, -0.25, 635, 1, -0.25, 636, 1, -0.25, 588, 1, -0.25
*EQUATION
5
956, 2, 1.0, 587, 2, -0.25, 635, 2, -0.25, 636, 2, -0.25, 588, 2, -0.25
*EQUATION
5
956, 3, 1.0, 587, 3, -0.25, 635, 3, -0.25, 636, 3, -0.25, 588, 3, -0.25
*EQUATION
3
957, 1, 1.0, 586, 1, -0.5, 634, 1, -0.5
*EQUATION
3
957, 2, 1.0, 586, 2, -0.5, 634, 2, -0.5
*EQUATION
3
957, 3, 1.0, 586, 3, -0.5, 634, 3, -0.5
*EQUATION
3
959, 1, 1.0, 588, 1, -0.5, 636, 1, -0.5
*EQUATION
3
959, 2, 1.0, 588, 2, -0.5, 636, 2, -0.5
*EQUATION
3
959, 3, 1.0, 588, 3, -0.5, 636, 3, -0.5
*EQUATION
3
961, 1, 1.0, 633, 1, -0.5, 634, 1, -0.5
*EQUATION
3
961, 2, 1.0, 633, 2, -0.5, 634, 2, -0.5
*EQUATION
3
961, 3, 1.0, 633, 3, -0.5, 634, 3, -0.5
*EQUATION
3
963, 1, 1.0, 635, 1, -0.5, 636, 1, -0.5
*EQUATION
3
963, 2, 1.0, 635, 2, -0.5, 636, 2, -0.5
*EQUATION
3
963, 3, 1.0, 635, 3, -0.5, 636, 3, -0.5
*EQUATION
3
965, 1, 1.0, 586, 1, -0.5, 593, 1, -0.5
*EQUATION
3
965, 2, 1.0, 586, 2, -0.5, 593, 2, -0.5
*EQUATION
3
965, 3, 1.0, 586, 3, -0.5, 593, 3, -0.5
*EQUATION
5
966, 1, 1.0, 586, 1, -0.25, 593, 1, -0.25, 594, 1, -0.25, 588, 1, -0.25
*EQUATION
5
966, 2, 1.0, 586, 2, -0.25, 593, 2, -0.25, 594, 2, -0.25, 588, 2, -0.25
*EQUATION
5
966, 3, 1.0, 586, 3, -0.25, 593, 3, -0.25, 594, 3, -0.25, 588, 3, -0.25
*EQUATION
3
967, 1, 1.0, 588, 1, -0.5, 594, 1, -0.5
*EQUATION
3
967, 2, 1.0, 588, 2, -0.5, 594, 2, -0.5
*EQUATION
3
967, 3, 1.0, 588, 3, -0.5, 594, 3, -0.5
*EQUATION
3
968, 1, 1.0, 593, 1, -0.5, 594, 1, -0.5
*EQUATION
3
968, 2, 1.0, 593, 2, -0.5, 594, 2, -0.5
*EQUATION
3
968, 3, 1.0, 593, 3, -0.5, 594, 3, -0.5
*EQUATION
5
969, 1, 1.0, 586, 1, -0.25, 634, 1, -0.25, 641, 1, -0.25, 593, 1, -0.25
*EQUATION
5
969, 2, 1.0, 586, 2, -0.25, 634, 2, -0.25, 641, 2, -0.25, 593, 2, -0.25
*EQUATION
5
969, 3, 1.0, 586, 3, -0.25, 634, 3, -0.25, 641, 3, -0.25, 593, 3, -0.25
*EQUATION
5
971, 1, 1.0, 588, 1, -0.25, 636, 1, -0.25, 642, 1, -0.25, 594, 1, -0.25
*EQUATION
5
971, 2, 1.0, 588, 2, -0.25, 636, 2, -0.25, 642, 2, -0.25, 594, 2, -0.25
*EQUATION
5
971, 3, 1.0, 588, 3, -0.25, 636, 3, -0.25, 642, 3, -0.25, 594, 3, -0.25
*EQUATION
3
972, 1, 1.0, 593, 1, -0.5, 641, 1, -0.5
*EQUATION
3
972, 2, 1.0, 593, 2, -0.5, 641, 2, -0.5
*EQUATION
3
972, 3, 1.0, 593, 3, -0.5, 641, 3, -0.5
*EQUATION
3
974, 1, 1.0, 594, 1, -0.5, 642, 1, -0.5
*EQUATION
3
974, 2, 1.0, 594, 2, -0.5, 642, 2, -0.5
*EQUATION
3
974, 3, 1.0, 594, 3, -0.5, 642, 3, -0.5
*EQUATION
3
975, 1, 1.0, 634, 1, -0.5, 641, 1, -0.5
*EQUATION
3
975, 2, 1.0, 634, 2, -0.5, 641, 2, -0.5
*EQUATION
3
975, 3, 1.0, 634, 3, -0.5, 641, 3, -0.5
*EQUATION
3
977, 1, 1.0, 636, 1, -0.5, 642, 1, -0.5
*EQUATION
3
977, 2, 1.0, 636, 2, -0.5, 642, 2, -0.5
*EQUATION
3
977, 3, 1.0, 636, 3, -0.5, 642, 3, -0.5
*EQUATION
3
979, 1, 1.0, 625, 1, -0.5, 627, 1, -0.5
*EQUATION
3
979, 2, 1.0, 625, 2, -0.5, 627, 2, -0.5
*EQUATION
3
979, 3, 1.0, 625, 3, -0.5, 627, 3, -0.5
*EQUATION
3
980, 1, 1.0, 625, 1, -0.5, 626, 1, -0.5
*EQUATION
3
980, 2, 1.0, 625, 2, -0.5, 626, 2, -0.5
*EQUATION
3
980, 3, 1.0, 625, 3, -0.5, 626, 3, -0.5
*EQUATION
5
981, 1, 1.0, 625, 1, -0.25, 626, 1, -0.25, 628, 1, -0.25, 627, 1, -0.25
*EQUATION
5
981, 2, 1.0, 625, 2, -0.25, 626, 2, -0.25, 628, 2, -0.25, 627, 2, -0.25
*EQUATION
5
981, 3, 1.0, 625, 3, -0.25, 626, 3, -0.25, 628, 3, -0.25, 627, 3, -0.25
*EQUATION
3
982, 1, 1.0, 627, 1, -0.5, 628, 1, -0.5
*EQUATION
3
982, 2, 1.0, 627, 2, -0.5, 628, 2, -0.5
*EQUATION
3
982, 3, 1.0, 627, 3, -0.5, 628, 3, -0.5
*EQUATION
3
983, 1, 1.0, 626, 1, -0.5, 628, 1, -0.5
*EQUATION
3
983, 2, 1.0, 626, 2, -0.5, 628, 2, -0.5
*EQUATION
3
983, 3, 1.0, 626, 3, -0.5, 628, 3, -0.5
*EQUATION
3
986, 1, 1.0, 627, 1, -0.5, 675, 1, -0.5
*EQUATION
3
986, 2, 1.0, 627, 2, -0.5, 675, 2, -0.5
*EQUATION
3
986, 3, 1.0, 627, 3, -0.5, 675, 3, -0.5
*EQUATION
5
989, 1, 1.0, 627, 1, -0.25, 675, 1, -0.25, 676, 1, -0.25, 628, 1, -0.25
*EQUATION
5
989, 2, 1.0, 627, 2, -0.25, 675, 2, -0.25, 676, 2, -0.25, 628, 2, -0.25
*EQUATION
5
989, 3, 1.0, 627, 3, -0.25, 675, 3, -0.25, 676, 3, -0.25, 628, 3, -0.25
*EQUATION
3
992, 1, 1.0, 628, 1, -0.5, 676, 1, -0.5
*EQUATION
3
992, 2, 1.0, 628, 2, -0.5, 676, 2, -0.5
*EQUATION
3
992, 3, 1.0, 628, 3, -0.5, 676, 3, -0.5
*EQUATION
3
996, 1, 1.0, 675, 1, -0.5, 676, 1, -0.5
*EQUATION
3
996, 2, 1.0, 675, 2, -0.5, 676, 2, -0.5
*EQUATION
3
996, 3, 1.0, 675, 3, -0.5, 676, 3, -0.5
*EQUATION
3
998, 1, 1.0, 633, 1, -0.5, 681, 1, -0.5
*EQUATION
3
998, 2, 1.0, 633, 2, -0.5, 681, 2, -0.5
*EQUATION
3
998, 3, 1.0, 633, 3, -0.5, 681, 3, -0.5
*EQUATION
3
1000, 1, 1.0, 635, 1, -0.5, 683, 1, -0.5
*EQUATION
3
1000, 2, 1.0, 635, 2, -0.5, 683, 2, -0.5
*EQUATION
3
1000, 3, 1.0, 635, 3, -0.5, 683, 3, -0.5
*EQUATION
5
1001, 1, 1.0, 633, 1, -0.25, 681, 1, -0.25, 682, 1, -0.25, 634, 1, -0.25
*EQUATION
5
1001, 2, 1.0, 633, 2, -0.25, 681, 2, -0.25, 682, 2, -0.25, 634, 2, -0.25
*EQUATION
5
1001, 3, 1.0, 633, 3, -0.25, 681, 3, -0.25, 682, 3, -0.25, 634, 3, -0.25
*EQUATION
5
1003, 1, 1.0, 635, 1, -0.25, 683, 1, -0.25, 684, 1, -0.25, 636, 1, -0.25
*EQUATION
5
1003, 2, 1.0, 635, 2, -0.25, 683, 2, -0.25, 684, 2, -0.25, 636, 2, -0.25
*EQUATION
5
1003, 3, 1.0, 635, 3, -0.25, 683, 3, -0.25, 684, 3, -0.25, 636, 3, -0.25
*EQUATION
3
1004, 1, 1.0, 634, 1, -0.5, 682, 1, -0.5
*EQUATION
3
1004, 2, 1.0, 634, 2, -0.5, 682, 2, -0.5
*EQUATION
3
1004, 3, 1.0, 634, 3, -0.5, 682, 3, -0.5
*EQUATION
3
1006, 1, 1.0, 636, 1, -0.5, 684, 1, -0.5
*EQUATION
3
1006, 2, 1.0, 636, 2, -0.5, 684, 2, -0.5
*EQUATION
3
1006, 3, 1.0, 636, 3, -0.5, 684, 3, -0.5
*EQUATION
3
1008, 1, 1.0, 681, 1, -0.5, 682, 1, -0.5
*EQUATION
3
1008, 2, 1.0, 681, 2, -0.5, 682, 2, -0.5
*EQUATION
3
1008, 3, 1.0, 681, 3, -0.5, 682, 3, -0.5
*EQUATION
3
1010, 1, 1.0, 683, 1, -0.5, 684, 1, -0.5
*EQUATION
3
1010, 2, 1.0, 683, 2, -0.5, 684, 2, -0.5
*EQUATION
3
1010, 3, 1.0, 683, 3, -0.5, 684, 3, -0.5
*EQUATION
3
1012, 1, 1.0, 626, 1, -0.5, 637, 1, -0.5
*EQUATION
3
1012, 2, 1.0, 626, 2, -0.5, 637, 2, -0.5
*EQUATION
3
1012, 3, 1.0, 626, 3, -0.5, 637, 3, -0.5
*EQUATION
5
1013, 1, 1.0, 626, 1, -0.25, 637, 1, -0.25, 638, 1, -0.25, 628, 1, -0.25
*EQUATION
5
1013, 2, 1.0, 626, 2, -0.25, 637, 2, -0.25, 638, 2, -0.25, 628, 2, -0.25
*EQUATION
5
1013, 3, 1.0, 626, 3, -0.25, 637, 3, -0.25, 638, 3, -0.25, 628, 3, -0.25
*EQUATION
3
1014, 1, 1.0, 628, 1, -0.5, 638, 1, -0.5
*EQUATION
3
1014, 2, 1.0, 628, 2, -0.5, 638, 2, -0.5
*EQUATION
3
1014, 3, 1.0, 628, 3, -0.5, 638, 3, -0.5
*EQUATION
3
1015, 1, 1.0, 637, 1, -0.5, 638, 1, -0.5
*EQUATION
3
1015, 2, 1.0, 637, 2, -0.5, 638, 2, -0.5
*EQUATION
3
1015, 3, 1.0, 637, 3, -0.5, 638, 3, -0.5
*EQUATION
5
1018, 1, 1.0, 628, 1, -0.25, 676, 1, -0.25, 686, 1, -0.25, 638, 1, -0.25
*EQUATION
5
1018, 2, 1.0, 628, 2, -0.25, 676, 2, -0.25, 686, 2, -0.25, 638, 2, -0.25
*EQUATION
5
1018, 3, 1.0, 628, 3, -0.25, 676, 3, -0.25, 686, 3, -0.25, 638, 3, -0.25
*EQUATION
3
1021, 1, 1.0, 638, 1, -0.5, 686, 1, -0.5
*EQUATION
3
1021, 2, 1.0, 638, 2, -0.5, 686, 2, -0.5
*EQUATION
3
1021, 3, 1.0, 638, 3, -0.5, 686, 3, -0.5
*EQUATION
3
1024, 1, 1.0, 676, 1, -0.5, 686, 1, -0.5
*EQUATION
3
1024, 2, 1.0, 676, 2, -0.5, 686, 2, -0.5
*EQUATION
3
1024, 3, 1.0, 676, 3, -0.5, 686, 3, -0.5
*EQUATION
3
1026, 1, 1.0, 630, 1, -0.5, 632, 1, -0.5
*EQUATION
3
1026, 2, 1.0, 630, 2, -0.5, 632, 2, -0.5
*EQUATION
3
1026, 3, 1.0, 630, 3, -0.5, 632, 3, -0.5
*EQUATION
3
1027, 1, 1.0, 630, 1, -0.5, 639, 1, -0.5
*EQUATION
3
1027, 2, 1.0, 630, 2, -0.5, 639, 2, -0.5
*EQUATION
3
1027, 3, 1.0, 630, 3, -0.5, 639, 3, -0.5
*EQUATION
5
1028, 1, 1.0, 630, 1, -0.25, 639, 1, -0.25, 640, 1, -0.25, 632, 1, -0.25
*EQUATION
5
1028, 2, 1.0, 630, 2, -0.25, 639, 2, -0.25, 640, 2, -0.25, 632, 2, -0.25
*EQUATION
5
1028, 3, 1.0, 630, 3, -0.25, 639, 3, -0.25, 640, 3, -0.25, 632, 3, -0.25
*EQUATION
3
1029, 1, 1.0, 632, 1, -0.5, 640, 1, -0.5
*EQUATION
3
1029, 2, 1.0, 632, 2, -0.5, 640, 2, -0.5
*EQUATION
3
1029, 3, 1.0, 632, 3, -0.5, 640, 3, -0.5
*EQUATION
3
1030, 1, 1.0, 639, 1, -0.5, 640, 1, -0.5
*EQUATION
3
1030, 2, 1.0, 639, 2, -0.5, 640, 2, -0.5
*EQUATION
3
1030, 3, 1.0, 639, 3, -0.5, 640, 3, -0.5
*EQUATION
3
1031, 1, 1.0, 630, 1, -0.5, 678, 1, -0.5
*EQUATION
3
1031, 2, 1.0, 630, 2, -0.5, 678, 2, -0.5
*EQUATION
3
1031, 3, 1.0, 630, 3, -0.5, 678, 3, -0.5
*EQUATION
5
1032, 1, 1.0, 630, 1, -0.25, 678, 1, -0.25, 680, 1, -0.25, 632, 1, -0.25
*EQUATION
5
1032, 2, 1.0, 630, 2, -0.25, 678, 2, -0.25, 680, 2, -0.25, 632, 2, -0.25
*EQUATION
5
1032, 3, 1.0, 630, 3, -0.25, 678, 3, -0.25, 680, 3, -0.25, 632, 3, -0.25
*EQUATION
3
1033, 1, 1.0, 632, 1, -0.5, 680, 1, -0.5
*EQUATION
3
1033, 2, 1.0, 632, 2, -0.5, 680, 2, -0.5
*EQUATION
3
1033, 3, 1.0, 632, 3, -0.5, 680, 3, -0.5
*EQUATION
5
1034, 1, 1.0, 630, 1, -0.25, 678, 1, -0.25, 687, 1, -0.25, 639, 1, -0.25
*EQUATION
5
1034, 2, 1.0, 630, 2, -0.25, 678, 2, -0.25, 687, 2, -0.25, 639, 2, -0.25
*EQUATION
5
1034, 3, 1.0, 630, 3, -0.25, 678, 3, -0.25, 687, 3, -0.25, 639, 3, -0.25
*EQUATION
5
1036, 1, 1.0, 632, 1, -0.25, 680, 1, -0.25, 688, 1, -0.25, 640, 1, -0.25
*EQUATION
5
1036, 2, 1.0, 632, 2, -0.25, 680, 2, -0.25, 688, 2, -0.25, 640, 2, -0.25
*EQUATION
5
1036, 3, 1.0, 632, 3, -0.25, 680, 3, -0.25, 688, 3, -0.25, 640, 3, -0.25
*EQUATION
3
1037, 1, 1.0, 639, 1, -0.5, 687, 1, -0.5
*EQUATION
3
1037, 2, 1.0, 639, 2, -0.5, 687, 2, -0.5
*EQUATION
3
1037, 3, 1.0, 639, 3, -0.5, 687, 3, -0.5
*EQUATION
3
1039, 1, 1.0, 640, 1, -0.5, 688, 1, -0.5
*EQUATION
3
1039, 2, 1.0, 640, 2, -0.5, 688, 2, -0.5
*EQUATION
3
1039, 3, 1.0, 640, 3, -0.5, 688, 3, -0.5
*EQUATION
3
1040, 1, 1.0, 678, 1, -0.5, 680, 1, -0.5
*EQUATION
3
1040, 2, 1.0, 678, 2, -0.5, 680, 2, -0.5
*EQUATION
3
1040, 3, 1.0, 678, 3, -0.5, 680, 3, -0.5
*EQUATION
3
1041, 1, 1.0, 678, 1, -0.5, 687, 1, -0.5
*EQUATION
3
1041, 2, 1.0, 678, 2, -0.5, 687, 2, -0.5
*EQUATION
3
1041, 3, 1.0, 678, 3, -0.5, 687, 3, -0.5
*EQUATION
3
1043, 1, 1.0, 680, 1, -0.5, 688, 1, -0.5
*EQUATION
3
1043, 2, 1.0, 680, 2, -0.5, 688, 2, -0.5
*EQUATION
3
1043, 3, 1.0, 680, 3, -0.5, 688, 3, -0.5
*EQUATION
5
1045, 1, 1.0, 634, 1, -0.25, 682, 1, -0.25, 689, 1, -0.25, 641, 1, -0.25
*EQUATION
5
1045, 2, 1.0, 634, 2, -0.25, 682, 2, -0.25, 689, 2, -0.25, 641, 2, -0.25
*EQUATION
5
1045, 3, 1.0, 634, 3, -0.25, 682, 3, -0.25, 689, 3, -0.25, 641, 3, -0.25
*EQUATION
5
1047, 1, 1.0, 636, 1, -0.25, 684, 1, -0.25, 690, 1, -0.25, 642, 1, -0.25
*EQUATION
5
1047, 2, 1.0, 636, 2, -0.25, 684, 2, -0.25, 690, 2, -0.25, 642, 2, -0.25
*EQUATION
5
1047, 3, 1.0, 636, 3, -0.25, 684, 3, -0.25, 690, 3, -0.25, 642, 3, -0.25
*EQUATION
3
1048, 1, 1.0, 641, 1, -0.5, 689, 1, -0.5
*EQUATION
3
1048, 2, 1.0, 641, 2, -0.5, 689, 2, -0.5
*EQUATION
3
1048, 3, 1.0, 641, 3, -0.5, 689, 3, -0.5
*EQUATION
3
1050, 1, 1.0, 642, 1, -0.5, 690, 1, -0.5
*EQUATION
3
1050, 2, 1.0, 642, 2, -0.5, 690, 2, -0.5
*EQUATION
3
1050, 3, 1.0, 642, 3, -0.5, 690, 3, -0.5
*EQUATION
3
1051, 1, 1.0, 682, 1, -0.5, 689, 1, -0.5
*EQUATION
3
1051, 2, 1.0, 682, 2, -0.5, 689, 2, -0.5
*EQUATION
3
1051, 3, 1.0, 682, 3, -0.5, 689, 3, -0.5
*EQUATION
3
1053, 1, 1.0, 684, 1, -0.5, 690, 1, -0.5
*EQUATION
3
1053, 2, 1.0, 684, 2, -0.5, 690, 2, -0.5
*EQUATION
3
1053, 3, 1.0, 684, 3, -0.5, 690, 3, -0.5
*EQUATION
3
1069, 1, 1.0, 675, 1, -0.5, 677, 1, -0.5
*EQUATION
3
1069, 2, 1.0, 675, 2, -0.5, 677, 2, -0.5
*EQUATION
3
1069, 3, 1.0, 675, 3, -0.5, 677, 3, -0.5
*EQUATION
5
1070, 1, 1.0, 675, 1, -0.25, 676, 1, -0.25, 678, 1, -0.25, 677, 1, -0.25
*EQUATION
5
1070, 2, 1.0, 675, 2, -0.25, 676, 2, -0.25, 678, 2, -0.25, 677, 2, -0.25
*EQUATION
5
1070, 3, 1.0, 675, 3, -0.25, 676, 3, -0.25, 678, 3, -0.25, 677, 3, -0.25
*EQUATION
3
1071, 1, 1.0, 677, 1, -0.5, 678, 1, -0.5
*EQUATION
3
1071, 2, 1.0, 677, 2, -0.5, 678, 2, -0.5
*EQUATION
3
1071, 3, 1.0, 677, 3, -0.5, 678, 3, -0.5
*EQUATION
3
1072, 1, 1.0, 676, 1, -0.5, 678, 1, -0.5
*EQUATION
3
1072, 2, 1.0, 676, 2, -0.5, 678, 2, -0.5
*EQUATION
3
1072, 3, 1.0, 676, 3, -0.5, 678, 3, -0.5
*EQUATION
3
1083, 1, 1.0, 677, 1, -0.5, 679, 1, -0.5
*EQUATION
3
1083, 2, 1.0, 677, 2, -0.5, 679, 2, -0.5
*EQUATION
3
1083, 3, 1.0, 677, 3, -0.5, 679, 3, -0.5
*EQUATION
5
1084, 1, 1.0, 677, 1, -0.25, 678, 1, -0.25, 680, 1, -0.25, 679, 1, -0.25
*EQUATION
5
1084, 2, 1.0, 677, 2, -0.25, 678, 2, -0.25, 680, 2, -0.25, 679, 2, -0.25
*EQUATION
5
1084, 3, 1.0, 677, 3, -0.25, 678, 3, -0.25, 680, 3, -0.25, 679, 3, -0.25
*EQUATION
3
1085, 1, 1.0, 679, 1, -0.5, 680, 1, -0.5
*EQUATION
3
1085, 2, 1.0, 679, 2, -0.5, 680, 2, -0.5
*EQUATION
3
1085, 3, 1.0, 679, 3, -0.5, 680, 3, -0.5
*EQUATION
3
1096, 1, 1.0, 679, 1, -0.5, 681, 1, -0.5
*EQUATION
3
1096, 2, 1.0, 679, 2, -0.5, 681, 2, -0.5
*EQUATION
3
1096, 3, 1.0, 679, 3, -0.5, 681, 3, -0.5
*EQUATION
5
1097, 1, 1.0, 679, 1, -0.25, 680, 1, -0.25, 682, 1, -0.25, 681, 1, -0.25
*EQUATION
5
1097, 2, 1.0, 679, 2, -0.25, 680, 2, -0.25, 682, 2, -0.25, 681, 2, -0.25
*EQUATION
5
1097, 3, 1.0, 679, 3, -0.25, 680, 3, -0.25, 682, 3, -0.25, 681, 3, -0.25
*EQUATION
3
1098, 1, 1.0, 680, 1, -0.5, 682, 1, -0.5
*EQUATION
3
1098, 2, 1.0, 680, 2, -0.5, 682, 2, -0.5
*EQUATION
3
1098, 3, 1.0, 680, 3, -0.5, 682, 3, -0.5
*EQUATION
3
1110, 1, 1.0, 683, 1, -0.5, 731, 1, -0.5
*EQUATION
3
1110, 2, 1.0, 683, 2, -0.5, 731, 2, -0.5
*EQUATION
3
1110, 3, 1.0, 683, 3, -0.5, 731, 3, -0.5
*EQUATION
5
1112, 1, 1.0, 683, 1, -0.25, 731, 1, -0.25, 732, 1, -0.25, 684, 1, -0.25
*EQUATION
5
1112, 2, 1.0, 683, 2, -0.25, 731, 2, -0.25, 732, 2, -0.25, 684, 2, -0.25
*EQUATION
5
1112, 3, 1.0, 683, 3, -0.25, 731, 3, -0.25, 732, 3, -0.25, 684, 3, -0.25
*EQUATION
3
1114, 1, 1.0, 684, 1, -0.5, 732, 1, -0.5
*EQUATION
3
1114, 2, 1.0, 684, 2, -0.5, 732, 2, -0.5
*EQUATION
3
1114, 3, 1.0, 684, 3, -0.5, 732, 3, -0.5
*EQUATION
3
1117, 1, 1.0, 731, 1, -0.5, 732, 1, -0.5
*EQUATION
3
1117, 2, 1.0, 731, 2, -0.5, 732, 2, -0.5
*EQUATION
3
1117, 3, 1.0, 731, 3, -0.5, 732, 3, -0.5
*EQUATION
5
1129, 1, 1.0, 676, 1, -0.25, 686, 1, -0.25, 687, 1, -0.25, 678, 1, -0.25
*EQUATION
5
1129, 2, 1.0, 676, 2, -0.25, 686, 2, -0.25, 687, 2, -0.25, 678, 2, -0.25
*EQUATION
5
1129, 3, 1.0, 676, 3, -0.25, 686, 3, -0.25, 687, 3, -0.25, 678, 3, -0.25
*EQUATION
3
1130, 1, 1.0, 686, 1, -0.5, 687, 1, -0.5
*EQUATION
3
1130, 2, 1.0, 686, 2, -0.5, 687, 2, -0.5
*EQUATION
3
1130, 3, 1.0, 686, 3, -0.5, 687, 3, -0.5
*EQUATION
5
1145, 1, 1.0, 680, 1, -0.25, 688, 1, -0.25, 689, 1, -0.25, 682, 1, -0.25
*EQUATION
5
1145, 2, 1.0, 680, 2, -0.25, 688, 2, -0.25, 689, 2, -0.25, 682, 2, -0.25
*EQUATION
5
1145, 3, 1.0, 680, 3, -0.25, 688, 3, -0.25, 689, 3, -0.25, 682, 3, -0.25
*EQUATION
3
1146, 1, 1.0, 688, 1, -0.5, 689, 1, -0.5
*EQUATION
3
1146, 2, 1.0, 688, 2, -0.5, 689, 2, -0.5
*EQUATION
3
1146, 3, 1.0, 688, 3, -0.5, 689, 3, -0.5
*EQUATION
5
1155, 1, 1.0, 684, 1, -0.25, 732, 1, -0.25, 738, 1, -0.25, 690, 1, -0.25
*EQUATION
5
1155, 2, 1.0, 684, 2, -0.25, 732, 2, -0.25, 738, 2, -0.25, 690, 2, -0.25
*EQUATION
5
1155, 3, 1.0, 684, 3, -0.25, 732, 3, -0.25, 738, 3, -0.25, 690, 3, -0.25
*EQUATION
3
1157, 1, 1.0, 690, 1, -0.5, 738, 1, -0.5
*EQUATION
3
1157, 2, 1.0, 690, 2, -0.5, 738, 2, -0.5
*EQUATION
3
1157, 3, 1.0, 690, 3, -0.5, 738, 3, -0.5
*EQUATION
3
1159, 1, 1.0, 732, 1, -0.5, 738, 1, -0.5
*EQUATION
3
1159, 2, 1.0, 732, 2, -0.5, 738, 2, -0.5
*EQUATION
3
1159, 3, 1.0, 732, 3, -0.5, 738, 3, -0.5
*EQUATION
3
1206, 1, 1.0, 731, 1, -0.5, 779, 1, -0.5
*EQUATION
3
1206, 2, 1.0, 731, 2, -0.5, 779, 2, -0.5
*EQUATION
3
1206, 3, 1.0, 731, 3, -0.5, 779, 3, -0.5
*EQUATION
5
1208, 1, 1.0, 731, 1, -0.25, 779, 1, -0.25, 780, 1, -0.25, 732, 1, -0.25
*EQUATION
5
1208, 2, 1.0, 731, 2, -0.25, 779, 2, -0.25, 780, 2, -0.25, 732, 2, -0.25
*EQUATION
5
1208, 3, 1.0, 731, 3, -0.25, 779, 3, -0.25, 780, 3, -0.25, 732, 3, -0.25
*EQUATION
3
1210, 1, 1.0, 732, 1, -0.5, 780, 1, -0.5
*EQUATION
3
1210, 2, 1.0, 732, 2, -0.5, 780, 2, -0.5
*EQUATION
3
1210, 3, 1.0, 732, 3, -0.5, 780, 3, -0.5
*EQUATION
3
1213, 1, 1.0, 779, 1, -0.5, 780, 1, -0.5
*EQUATION
3
1213, 2, 1.0, 779, 2, -0.5, 780, 2, -0.5
*EQUATION
3
1213, 3, 1.0, 779, 3, -0.5, 780, 3, -0.5
*EQUATION
5
1247, 1, 1.0, 732, 1, -0.25, 780, 1, -0.25, 786, 1, -0.25, 738, 1, -0.25
*EQUATION
5
1247, 2, 1.0, 732, 2, -0.25, 780, 2, -0.25, 786, 2, -0.25, 738, 2, -0.25
*EQUATION
5
1247, 3, 1.0, 732, 3, -0.25, 780, 3, -0.25, 786, 3, -0.25, 738, 3, -0.25
*EQUATION
3
1249, 1, 1.0, 738, 1, -0.5, 786, 1, -0.5
*EQUATION
3
1249, 2, 1.0, 738, 2, -0.5, 786, 2, -0.5
*EQUATION
3
1249, 3, 1.0, 738, 3, -0.5, 786, 3, -0.5
*EQUATION
3
1251, 1, 1.0, 780, 1, -0.5, 786, 1, -0.5
*EQUATION
3
1251, 2, 1.0, 780, 2, -0.5, 786, 2, -0.5
*EQUATION
3
1251, 3, 1.0, 780, 3, -0.5, 786, 3, -0.5
*EQUATION
3
1298, 1, 1.0, 779, 1, -0.5, 827, 1, -0.5
*EQUATION
3
1298, 2, 1.0, 779, 2, -0.5, 827, 2, -0.5
*EQUATION
3
1298, 3, 1.0, 779, 3, -0.5, 827, 3, -0.5
*EQUATION
3
1341, 1, 1.0, 786, 1, -0.5, 834, 1, -0.5
*EQUATION
3
1341, 2, 1.0, 786, 2, -0.5, 834, 2, -0.5
*EQUATION
3
1341, 3, 1.0, 786, 3, -0.5, 834, 3, -0.5
*EQUATION
3
1345, 1, 1.0, 779, 1, -0.5, 799, 1, -0.5
*EQUATION
3
1345, 2, 1.0, 779, 2, -0.5, 799, 2, -0.5
*EQUATION
3
1345, 3, 1.0, 779, 3, -0.5, 799, 3, -0.5
*EQUATION
5
1346, 1, 1.0, 779, 1, -0.25, 780, 1, -0.25, 801, 1, -0.25, 799, 1, -0.25
*EQUATION
5
1346, 2, 1.0, 779, 2, -0.25, 780, 2, -0.25, 801, 2, -0.25, 799, 2, -0.25
*EQUATION
5
1346, 3, 1.0, 779, 3, -0.25, 780, 3, -0.25, 801, 3, -0.25, 799, 3, -0.25
*EQUATION
3
1347, 1, 1.0, 799, 1, -0.5, 801, 1, -0.5
*EQUATION
3
1347, 2, 1.0, 799, 2, -0.5, 801, 2, -0.5
*EQUATION
3
1347, 3, 1.0, 799, 3, -0.5, 801, 3, -0.5
*EQUATION
3
1348, 1, 1.0, 780, 1, -0.5, 801, 1, -0.5
*EQUATION
3
1348, 2, 1.0, 780, 2, -0.5, 801, 2, -0.5
*EQUATION
3
1348, 3, 1.0, 780, 3, -0.5, 801, 3, -0.5
*EQUATION
5
1349, 1, 1.0, 779, 1, -0.25, 827, 1, -0.25, 847, 1, -0.25, 799, 1, -0.25
*EQUATION
5
1349, 2, 1.0, 779, 2, -0.25, 827, 2, -0.25, 847, 2, -0.25, 799, 2, -0.25
*EQUATION
5
1349, 3, 1.0, 779, 3, -0.25, 827, 3, -0.25, 847, 3, -0.25, 799, 3, -0.25
*EQUATION
3
1350, 1, 1.0, 799, 1, -0.5, 847, 1, -0.5
*EQUATION
3
1350, 2, 1.0, 799, 2, -0.5, 847, 2, -0.5
*EQUATION
3
1350, 3, 1.0, 799, 3, -0.5, 847, 3, -0.5
*EQUATION
3
1355, 1, 1.0, 827, 1, -0.5, 847, 1, -0.5
*EQUATION
3
1355, 2, 1.0, 827, 2, -0.5, 847, 2, -0.5
*EQUATION
3
1355, 3, 1.0, 827, 3, -0.5, 847, 3, -0.5
*EQUATION
3
1359, 1, 1.0, 799, 1, -0.5, 800, 1, -0.5
*EQUATION
3
1359, 2, 1.0, 799, 2, -0.5, 800, 2, -0.5
*EQUATION
3
1359, 3, 1.0, 799, 3, -0.5, 800, 3, -0.5
*EQUATION
5
1360, 1, 1.0, 799, 1, -0.25, 801, 1, -0.25, 802, 1, -0.25, 800, 1, -0.25
*EQUATION
5
1360, 2, 1.0, 799, 2, -0.25, 801, 2, -0.25, 802, 2, -0.25, 800, 2, -0.25
*EQUATION
5
1360, 3, 1.0, 799, 3, -0.25, 801, 3, -0.25, 802, 3, -0.25, 800, 3, -0.25
*EQUATION
3
1361, 1, 1.0, 800, 1, -0.5, 802, 1, -0.5
*EQUATION
3
1361, 2, 1.0, 800, 2, -0.5, 802, 2, -0.5
*EQUATION
3
1361, 3, 1.0, 800, 3, -0.5, 802, 3, -0.5
*EQUATION
3
1362, 1, 1.0, 801, 1, -0.5, 802, 1, -0.5
*EQUATION
3
1362, 2, 1.0, 801, 2, -0.5, 802, 2, -0.5
*EQUATION
3
1362, 3, 1.0, 801, 3, -0.5, 802, 3, -0.5
*EQUATION
5
1363, 1, 1.0, 799, 1, -0.25, 847, 1, -0.25, 848, 1, -0.25, 800, 1, -0.25
*EQUATION
5
1363, 2, 1.0, 799, 2, -0.25, 847, 2, -0.25, 848, 2, -0.25, 800, 2, -0.25
*EQUATION
5
1363, 3, 1.0, 799, 3, -0.25, 847, 3, -0.25, 848, 3, -0.25, 800, 3, -0.25
*EQUATION
3
1364, 1, 1.0, 800, 1, -0.5, 848, 1, -0.5
*EQUATION
3
1364, 2, 1.0, 800, 2, -0.5, 848, 2, -0.5
*EQUATION
3
1364, 3, 1.0, 800, 3, -0.5, 848, 3, -0.5
*EQUATION
3
1369, 1, 1.0, 847, 1, -0.5, 848, 1, -0.5
*EQUATION
3
1369, 2, 1.0, 847, 2, -0.5, 848, 2, -0.5
*EQUATION
3
1369, 3, 1.0, 847, 3, -0.5, 848, 3, -0.5
*EQUATION
5
1373, 1, 1.0, 780, 1, -0.25, 786, 1, -0.25, 803, 1, -0.25, 801, 1, -0.25
*EQUATION
5
1373, 2, 1.0, 780, 2, -0.25, 786, 2, -0.25, 803, 2, -0.25, 801, 2, -0.25
*EQUATION
5
1373, 3, 1.0, 780, 3, -0.25, 786, 3, -0.25, 803, 3, -0.25, 801, 3, -0.25
*EQUATION
3
1374, 1, 1.0, 801, 1, -0.5, 803, 1, -0.5
*EQUATION
3
1374, 2, 1.0, 801, 2, -0.5, 803, 2, -0.5
*EQUATION
3
1374, 3, 1.0, 801, 3, -0.5, 803, 3, -0.5
*EQUATION
3
1375, 1, 1.0, 786, 1, -0.5, 803, 1, -0.5
*EQUATION
3
1375, 2, 1.0, 786, 2, -0.5, 803, 2, -0.5
*EQUATION
3
1375, 3, 1.0, 786, 3, -0.5, 803, 3, -0.5
*EQUATION
5
1378, 1, 1.0, 786, 1, -0.25, 834, 1, -0.25, 851, 1, -0.25, 803, 1, -0.25
*EQUATION
5
1378, 2, 1.0, 786, 2, -0.25, 834, 2, -0.25, 851, 2, -0.25, 803, 2, -0.25
*EQUATION
5
1378, 3, 1.0, 786, 3, -0.25, 834, 3, -0.25, 851, 3, -0.25, 803, 3, -0.25
*EQUATION
3
1379, 1, 1.0, 803, 1, -0.5, 851, 1, -0.5
*EQUATION
3
1379, 2, 1.0, 803, 2, -0.5, 851, 2, -0.5
*EQUATION
3
1379, 3, 1.0, 803, 3, -0.5, 851, 3, -0.5
*EQUATION
3
1382, 1, 1.0, 834, 1, -0.5, 851, 1, -0.5
*EQUATION
3
1382, 2, 1.0, 834, 2, -0.5, 851, 2, -0.5
*EQUATION
3
1382, 3, 1.0, 834, 3, -0.5, 851, 3, -0.5
*EQUATION
5
1383, 1, 1.0, 801, 1, -0.25, 803, 1, -0.25, 804, 1, -0.25, 802, 1, -0.25
*EQUATION
5
1383, 2, 1.0, 801, 2, -0.25, 803, 2, -0.25, 804, 2, -0.25, 802, 2, -0.25
*EQUATION
5
1383, 3, 1.0, 801, 3, -0.25, 803, 3, -0.25, 804, 3, -0.25, 802, 3, -0.25
*EQUATION
3
1384, 1, 1.0, 802, 1, -0.5, 804, 1, -0.5
*EQUATION
3
1384, 2, 1.0, 802, 2, -0.5, 804, 2, -0.5
*EQUATION
3
1384, 3, 1.0, 802, 3, -0.5, 804, 3, -0.5
*EQUATION
3
1385, 1, 1.0, 803, 1, -0.5, 804, 1, -0.5
*EQUATION
3
1385, 2, 1.0, 803, 2, -0.5, 804, 2, -0.5
*EQUATION
3
1385, 3, 1.0, 803, 3, -0.5, 804, 3, -0.5
*EQUATION
5
1388, 1, 1.0, 803, 1, -0.25, 851, 1, -0.25, 852, 1, -0.25, 804, 1, -0.25
*EQUATION
5
1388, 2, 1.0, 803, 2, -0.25, 851, 2, -0.25, 852, 2, -0.25, 804, 2, -0.25
*EQUATION
5
1388, 3, 1.0, 803, 3, -0.25, 851, 3, -0.25, 852, 3, -0.25, 804, 3, -0.25
*EQUATION
3
1389, 1, 1.0, 804, 1, -0.5, 852, 1, -0.5
*EQUATION
3
1389, 2, 1.0, 804, 2, -0.5, 852, 2, -0.5
*EQUATION
3
1389, 3, 1.0, 804, 3, -0.5, 852, 3, -0.5
*EQUATION
3
1392, 1, 1.0, 851, 1, -0.5, 852, 1, -0.5
*EQUATION
3
1392, 2, 1.0, 851, 2, -0.5, 852, 2, -0.5
*EQUATION
3
1392, 3, 1.0, 851, 3, -0.5, 852, 3, -0.5
*EQUATION
3
1438, 1, 1.0, 827, 1, -0.5, 875, 1, -0.5
*EQUATION
3
1438, 2, 1.0, 827, 2, -0.5, 875, 2, -0.5
*EQUATION
3
1438, 3, 1.0, 827, 3, -0.5, 875, 3, -0.5
*EQUATION
3
1481, 1, 1.0, 834, 1, -0.5, 882, 1, -0.5
*EQUATION
3
1481, 2, 1.0, 834, 2, -0.5, 882, 2, -0.5
*EQUATION
3
1481, 3, 1.0, 834, 3, -0.5, 882, 3, -0.5
*EQUATION
5
1485, 1, 1.0, 827, 1, -0.25, 875, 1, -0.25, 895, 1, -0.25, 847, 1, -0.25
*EQUATION
5
1485, 2, 1.0, 827, 2, -0.25, 875, 2, -0.25, 895, 2, -0.25, 847, 2, -0.25
*EQUATION
5
1485, 3, 1.0, 827, 3, -0.25, 875, 3, -0.25, 895, 3, -0.25, 847, 3, -0.25
*EQUATION
3
1486, 1, 1.0, 847, 1, -0.5, 895, 1, -0.5
*EQUATION
3
1486, 2, 1.0, 847, 2, -0.5, 895, 2, -0.5
*EQUATION
3
1486, 3, 1.0, 847, 3, -0.5, 895, 3, -0.5
*EQUATION
3
1491, 1, 1.0, 875, 1, -0.5, 895, 1, -0.5
*EQUATION
3
1491, 2, 1.0, 875, 2, -0.5, 895, 2, -0.5
*EQUATION
3
1491, 3, 1.0, 875, 3, -0.5, 895, 3, -0.5
*EQUATION
5
1495, 1, 1.0, 847, 1, -0.25, 895, 1, -0.25, 896, 1, -0.25, 848, 1, -0.25
*EQUATION
5
1495, 2, 1.0, 847, 2, -0.25, 895, 2, -0.25, 896, 2, -0.25, 848, 2, -0.25
*EQUATION
5
1495, 3, 1.0, 847, 3, -0.25, 895, 3, -0.25, 896, 3, -0.25, 848, 3, -0.25
*EQUATION
3
1496, 1, 1.0, 848, 1, -0.5, 896, 1, -0.5
*EQUATION
3
1496, 2, 1.0, 848, 2, -0.5, 896, 2, -0.5
*EQUATION
3
1496, 3, 1.0, 848, 3, -0.5, 896, 3, -0.5
*EQUATION
3
1501, 1, 1.0, 895, 1, -0.5, 896, 1, -0.5
*EQUATION
3
1501, 2, 1.0, 895, 2, -0.5, 896, 2, -0.5
*EQUATION
3
1501, 3, 1.0, 895, 3, -0.5, 896, 3, -0.5
*EQUATION
5
1507, 1, 1.0, 834, 1, -0.25, 882, 1, -0.25, 899, 1, -0.25, 851, 1, -0.25
*EQUATION
5
1507, 2, 1.0, 834, 2, -0.25, 882, 2, -0.25, 899, 2, -0.25, 851, 2, -0.25
*EQUATION
5
1507, 3, 1.0, 834, 3, -0.25, 882, 3, -0.25, 899, 3, -0.25, 851, 3, -0.25
*EQUATION
3
1508, 1, 1.0, 851, 1, -0.5, 899, 1, -0.5
*EQUATION
3
1508, 2, 1.0, 851, 2, -0.5, 899, 2, -0.5
*EQUATION
3
1508, 3, 1.0, 851, 3, -0.5, 899, 3, -0.5
*EQUATION
3
1511, 1, 1.0, 882, 1, -0.5, 899, 1, -0.5
*EQUATION
3
1511, 2, 1.0, 882, 2, -0.5, 899, 2, -0.5
*EQUATION
3
1511, 3, 1.0, 882, 3, -0.5, 899, 3, -0.5
*EQUATION
5
1514, 1, 1.0, 851, 1, -0.25, 899, 1, -0.25, 900, 1, -0.25, 852, 1, -0.25
*EQUATION
5
1514, 2, 1.0, 851, 2, -0.25, 899, 2, -0.25, 900, 2, -0.25, 852, 2, -0.25
*EQUATION
5
1514, 3, 1.0, 851, 3, -0.25, 899, 3, -0.25, 900, 3, -0.25, 852, 3, -0.25
*EQUATION
3
1515, 1, 1.0, 852, 1, -0.5, 900, 1, -0.5
*EQUATION
3
1515, 2, 1.0, 852, 2, -0.5, 900, 2, -0.5
*EQUATION
3
1515, 3, 1.0, 852, 3, -0.5, 900, 3, -0.5
*EQUATION
3
1518, 1, 1.0, 899, 1, -0.5, 900, 1, -0.5
*EQUATION
3
1518, 2, 1.0, 899, 2, -0.5, 900, 2, -0.5
*EQUATION
3
1518, 3, 1.0, 899, 3, -0.5, 900, 3, -0.5
*BOUNDARY
CLAMP, 1, 3, 0.0
*STEP
*STATIC
*CLOAD
887, 3, -384.615384615
888, 3, -384.615384615
891, 3, -384.615384615
894, 3, -384.615384615
896, 3, -384.615384615
898, 3, -384.615384615
900, 3, -384.615384615
903, 3, -384.615384615
906, 3, -384.615384615
909, 3, -384.615384615
912, 3, -384.615384615
1503, 3, -384.615384615
1517, 3, -384.615384615
*NODE FILE
U
*EL FILE
S, ENER
*NODE PRINT, NSET=TIP_TOP
U
*NODE PRINT, NSET=CLAMP
RF
*EL PRINT, ELSET=EALL
ELSE
*ENERGY PRINT
*END STEP
