*HEADING
G01 S-LIN T0 layout C3D20 locking diagnostic, not a second error axis
units: mm, N, s, MPa, t. Illustrative steel, not a coupon card.
beam=G01 case=S-LIN job=g01_slin_t0_c3d20 type=C3D20
E=210000.0 nu=0.3 fy=235.0 load=-5000.0 N on TIP_TOP
*NODE, NSET=NALL
1, 0, -10, 0
2, 111.111111111, -10, 0
3, 111.111111111, 0, 0
4, 0, 0, 0
5, 0, -10, 28
6, 111.111111111, -10, 28
7, 111.111111111, 0, 28
8, 0, 0, 28
9, 0, -10, 56
10, 111.111111111, -10, 56
11, 111.111111111, 0, 56
12, 0, 0, 56
13, 0, -10, 84
14, 111.111111111, -10, 84
15, 111.111111111, 0, 84
16, 0, 0, 84
17, 0, -10, 112
18, 111.111111111, -10, 112
19, 111.111111111, 0, 112
20, 0, 0, 112
** ... 3219 like lines cut
*ELEMENT, TYPE=C3D20, ELSET=EALL
1, 1, 2, 3, 4, 5, 6, 7, 8, 913, 914, 915, 916, 917, 918, 919
920, 921, 922, 923, 924
2, 5, 6, 7, 8, 9, 10, 11, 12, 917, 918, 919, 920, 925, 926, 927
928, 929, 930, 931, 932
3, 9, 10, 11, 12, 13, 14, 15, 16, 925, 926, 927, 928, 933, 934, 935
936, 937, 938, 939, 940
4, 13, 14, 15, 16, 17, 18, 19, 20, 933, 934, 935, 936, 941, 942, 943
944, 945, 946, 947, 948
5, 17, 18, 19, 20, 21, 22, 23, 24, 941, 942, 943, 944, 949, 950, 951
952, 953, 954, 955, 956
6, 4, 3, 25, 26, 8, 7, 27, 28, 915, 957, 958, 959, 919, 960, 961
962, 924, 923, 963, 964
7, 8, 7, 27, 28, 12, 11, 29, 30, 919, 960, 961, 962, 927, 965, 966
967, 932, 931, 968, 969
8, 12, 11, 29, 30, 16, 15, 31, 32, 927, 965, 966, 967, 935, 970, 971
972, 940, 939, 973, 974
9, 16, 15, 31, 32, 20, 19, 33, 34, 935, 970, 971, 972, 943, 975, 976
977, 948, 947, 978, 979
10, 20, 19, 33, 34, 24, 23, 35, 36, 943, 975, 976, 977, 951, 980, 981
982, 956, 955, 983, 984
** ... 1060 like lines cut
*NSET, NSET=CLAMP
1, 4, 5, 8, 9, 12, 13, 16, 17, 20, 21, 24, 26, 28, 30, 32
34, 36, 37, 40, 41, 44, 45, 48, 50, 52, 54, 56, 58, 60, 62, 64
66, 68, 70, 72, 74, 76, 78, 80, 82, 84, 86, 88, 90, 92, 94, 96
*NSET, NSET=TIP_TOP
887, 888, 891, 894, 896, 898, 900, 903, 906, 909, 912
*NSET, NSET=TIP_FLANGE
887, 888, 891, 894, 896, 898, 900, 903, 906, 909, 912
*MATERIAL, NAME=STEEL
*ELASTIC
210000, 0.3
*SOLID SECTION, ELSET=EALL, MATERIAL=STEEL
*BOUNDARY
CLAMP, 1, 3, 0.0
*STEP
*STATIC
*CLOAD
887, 3, -454.545454545
888, 3, -454.545454545
891, 3, -454.545454545
894, 3, -454.545454545
896, 3, -454.545454545
898, 3, -454.545454545
900, 3, -454.545454545
903, 3, -454.545454545
906, 3, -454.545454545
909, 3, -454.545454545
912, 3, -454.545454545
*NODE FILE
U
*EL FILE
S, ENER
*NODE PRINT, NSET=TIP_TOP
U
*NODE PRINT, NSET=CLAMP
RF
*EL PRINT, ELSET=EALL
ELSE
*ENERGY PRINT
*END STEP
