*HEADING
T05 S-LIN hanging 8-split zz cycle 2
units: mm, N, s, MPa. Material is illustrative steel, not a coupon card.
E=210000.0 nu=0.3. load -5000.0 N on TIP_TOP.
*NODE, NSET=NALL
1, 0, -10, 0
2, 111.111111111, -10, 0
3, 111.111111111, 0, 0
4, 0, 0, 0
5, 0, -10, 28
6, 111.111111111, -10, 28
7, 111.111111111, 0, 28
8, 0, 0, 28
9, 0, -10, 56
10, 111.111111111, -10, 56
11, 111.111111111, 0, 56
12, 0, 0, 56
13, 0, -10, 84
14, 111.111111111, -10, 84
15, 111.111111111, 0, 84
16, 0, 0, 84
17, 0, -10, 112
18, 111.111111111, -10, 112
19, 111.111111111, 0, 112
20, 0, 0, 112
** ... 2222 like lines cut
*ELEMENT, TYPE=C3D8, ELSET=EALL
1, 1, 918, 921, 914, 913, 919, 922, 915
2, 913, 919, 922, 915, 5, 920, 923, 916
3, 914, 921, 924, 4, 915, 922, 925, 917
4, 915, 922, 925, 917, 916, 923, 926, 8
5, 918, 1485, 1488, 1481, 1480, 1486, 1489, 1482
6, 1480, 1486, 1489, 1482, 919, 1487, 1490, 1483
7, 1481, 1488, 1491, 921, 1482, 1489, 1492, 1484
8, 1482, 1489, 1492, 1484, 1483, 1490, 1493, 922
9, 1485, 2, 1495, 1488, 1486, 1494, 1496, 1489
10, 1486, 1494, 1496, 1489, 1487, 927, 1497, 1490
11, 1488, 1495, 928, 1491, 1489, 1496, 1498, 1492
12, 1489, 1496, 1498, 1492, 1490, 1497, 929, 1493
13, 919, 927, 929, 922, 920, 6, 930, 923
14, 921, 1491, 1503, 1499, 1484, 1492, 1504, 1500
15, 1484, 1492, 1504, 1500, 922, 1493, 1505, 1501
16, 1499, 1503, 1506, 924, 1500, 1504, 1507, 1502
17, 1500, 1504, 1507, 1502, 1501, 1505, 1508, 925
18, 1491, 928, 1509, 1503, 1492, 1498, 1510, 1504
19, 1492, 1498, 1510, 1504, 1493, 929, 1511, 1505
20, 1503, 1509, 3, 1506, 1504, 1510, 1512, 1507
** ... 1304 like lines cut
*NSET, NSET=CLAMP
1, 4, 5, 8, 9, 12, 13, 16, 17, 20, 21, 24, 26, 28, 30, 32
34, 36, 37, 40, 41, 44, 45, 48, 50, 52, 54, 56, 58, 60, 62, 64
66, 68, 70, 72, 74, 76, 78, 80, 82, 84, 86, 88, 90, 92, 94, 96
913, 914, 915, 916, 917, 932, 933, 934, 935, 1513, 1514, 1515, 1516, 1555, 1556, 1557
*NSET, NSET=TIP_TOP
887, 888, 891, 894, 896, 898, 900, 903, 906, 909, 912, 1440, 1454, 1478, 2196, 2210
2224, 2242
*MATERIAL, NAME=STEEL
*ELASTIC
210000, 0.3
*SOLID SECTION, ELSET=EALL, MATERIAL=STEEL
*EQUATION
3
958, 1, 1.0, 99, 1, -0.5, 100, 1, -0.5
*EQUATION
3
958, 2, 1.0, 99, 2, -0.5, 100, 2, -0.5
*EQUATION
3
958, 3, 1.0, 99, 3, -0.5, 100, 3, -0.5
*EQUATION
3
968, 1, 1.0, 100, 1, -0.5, 110, 1, -0.5
*EQUATION
3
968, 2, 1.0, 100, 2, -0.5, 110, 2, -0.5
*EQUATION
3
968, 3, 1.0, 100, 3, -0.5, 110, 3, -0.5
*EQUATION
3
974, 1, 1.0, 454, 1, -0.5, 456, 1, -0.5
*EQUATION
3
974, 2, 1.0, 454, 2, -0.5, 456, 2, -0.5
*EQUATION
3
974, 3, 1.0, 454, 3, -0.5, 456, 3, -0.5
*EQUATION
3
981, 1, 1.0, 454, 1, -0.5, 502, 1, -0.5
*EQUATION
3
981, 2, 1.0, 454, 2, -0.5, 502, 2, -0.5
*EQUATION
3
981, 3, 1.0, 454, 3, -0.5, 502, 3, -0.5
*EQUATION
5
982, 1, 1.0, 454, 1, -0.25, 502, 1, -0.25, 504, 1, -0.25, 456, 1, -0.25
*EQUATION
5
982, 2, 1.0, 454, 2, -0.25, 502, 2, -0.25, 504, 2, -0.25, 456, 2, -0.25
*EQUATION
5
982, 3, 1.0, 454, 3, -0.25, 502, 3, -0.25, 504, 3, -0.25, 456, 3, -0.25
*EQUATION
3
983, 1, 1.0, 456, 1, -0.5, 504, 1, -0.5
*EQUATION
3
983, 2, 1.0, 456, 2, -0.5, 504, 2, -0.5
*EQUATION
3
983, 3, 1.0, 456, 3, -0.5, 504, 3, -0.5
*EQUATION
3
988, 1, 1.0, 502, 1, -0.5, 504, 1, -0.5
*EQUATION
3
988, 2, 1.0, 502, 2, -0.5, 504, 2, -0.5
*EQUATION
3
988, 3, 1.0, 502, 3, -0.5, 504, 3, -0.5
*EQUATION
3
989, 1, 1.0, 476, 1, -0.5, 477, 1, -0.5
*EQUATION
3
989, 2, 1.0, 476, 2, -0.5, 477, 2, -0.5
*EQUATION
3
989, 3, 1.0, 476, 3, -0.5, 477, 3, -0.5
*EQUATION
3
994, 1, 1.0, 476, 1, -0.5, 524, 1, -0.5
*EQUATION
3
994, 2, 1.0, 476, 2, -0.5, 524, 2, -0.5
*EQUATION
3
994, 3, 1.0, 476, 3, -0.5, 524, 3, -0.5
*EQUATION
5
995, 1, 1.0, 476, 1, -0.25, 524, 1, -0.25, 525, 1, -0.25, 477, 1, -0.25
*EQUATION
5
995, 2, 1.0, 476, 2, -0.25, 524, 2, -0.25, 525, 2, -0.25, 477, 2, -0.25
*EQUATION
5
995, 3, 1.0, 476, 3, -0.25, 524, 3, -0.25, 525, 3, -0.25, 477, 3, -0.25
*EQUATION
3
996, 1, 1.0, 477, 1, -0.5, 525, 1, -0.5
*EQUATION
3
996, 2, 1.0, 477, 2, -0.5, 525, 2, -0.5
*EQUATION
3
996, 3, 1.0, 477, 3, -0.5, 525, 3, -0.5
*EQUATION
3
1003, 1, 1.0, 524, 1, -0.5, 525, 1, -0.5
*EQUATION
3
1003, 2, 1.0, 524, 2, -0.5, 525, 2, -0.5
*EQUATION
3
1003, 3, 1.0, 524, 3, -0.5, 525, 3, -0.5
*EQUATION
3
1011, 1, 1.0, 500, 1, -0.5, 502, 1, -0.5
*EQUATION
3
1011, 2, 1.0, 500, 2, -0.5, 502, 2, -0.5
*EQUATION
3
1011, 3, 1.0, 500, 3, -0.5, 502, 3, -0.5
*EQUATION
3
1018, 1, 1.0, 500, 1, -0.5, 548, 1, -0.5
*EQUATION
3
1018, 2, 1.0, 500, 2, -0.5, 548, 2, -0.5
*EQUATION
3
1018, 3, 1.0, 500, 3, -0.5, 548, 3, -0.5
*EQUATION
5
1019, 1, 1.0, 500, 1, -0.25, 548, 1, -0.25, 550, 1, -0.25, 502, 1, -0.25
*EQUATION
5
1019, 2, 1.0, 500, 2, -0.25, 548, 2, -0.25, 550, 2, -0.25, 502, 2, -0.25
*EQUATION
5
1019, 3, 1.0, 500, 3, -0.25, 548, 3, -0.25, 550, 3, -0.25, 502, 3, -0.25
*EQUATION
3
1020, 1, 1.0, 502, 1, -0.5, 550, 1, -0.5
*EQUATION
3
1020, 2, 1.0, 502, 2, -0.5, 550, 2, -0.5
*EQUATION
3
1020, 3, 1.0, 502, 3, -0.5, 550, 3, -0.5
*EQUATION
3
1025, 1, 1.0, 548, 1, -0.5, 550, 1, -0.5
*EQUATION
3
1025, 2, 1.0, 548, 2, -0.5, 550, 2, -0.5
*EQUATION
3
1025, 3, 1.0, 548, 3, -0.5, 550, 3, -0.5
*EQUATION
3
1036, 1, 1.0, 523, 1, -0.5, 524, 1, -0.5
*EQUATION
3
1036, 2, 1.0, 523, 2, -0.5, 524, 2, -0.5
*EQUATION
3
1036, 3, 1.0, 523, 3, -0.5, 524, 3, -0.5
*EQUATION
3
1040, 1, 1.0, 523, 1, -0.5, 571, 1, -0.5
*EQUATION
3
1040, 2, 1.0, 523, 2, -0.5, 571, 2, -0.5
*EQUATION
3
1040, 3, 1.0, 523, 3, -0.5, 571, 3, -0.5
*EQUATION
5
1041, 1, 1.0, 523, 1, -0.25, 571, 1, -0.25, 572, 1, -0.25, 524, 1, -0.25
*EQUATION
5
1041, 2, 1.0, 523, 2, -0.25, 571, 2, -0.25, 572, 2, -0.25, 524, 2, -0.25
*EQUATION
5
1041, 3, 1.0, 523, 3, -0.25, 571, 3, -0.25, 572, 3, -0.25, 524, 3, -0.25
*EQUATION
3
1042, 1, 1.0, 524, 1, -0.5, 572, 1, -0.5
*EQUATION
3
1042, 2, 1.0, 524, 2, -0.5, 572, 2, -0.5
*EQUATION
3
1042, 3, 1.0, 524, 3, -0.5, 572, 3, -0.5
*EQUATION
3
1049, 1, 1.0, 571, 1, -0.5, 572, 1, -0.5
*EQUATION
3
1049, 2, 1.0, 571, 2, -0.5, 572, 2, -0.5
*EQUATION
3
1049, 3, 1.0, 571, 3, -0.5, 572, 3, -0.5
*EQUATION
3
1280, 1, 1.0, 749, 1, -0.5, 750, 1, -0.5
*EQUATION
3
1280, 2, 1.0, 749, 2, -0.5, 750, 2, -0.5
*EQUATION
3
1280, 3, 1.0, 749, 3, -0.5, 750, 3, -0.5
*EQUATION
3
1281, 1, 1.0, 749, 1, -0.5, 751, 1, -0.5
*EQUATION
3
1281, 2, 1.0, 749, 2, -0.5, 751, 2, -0.5
*EQUATION
3
1281, 3, 1.0, 749, 3, -0.5, 751, 3, -0.5
*EQUATION
3
1284, 1, 1.0, 751, 1, -0.5, 752, 1, -0.5
*EQUATION
3
1284, 2, 1.0, 751, 2, -0.5, 752, 2, -0.5
*EQUATION
3
1284, 3, 1.0, 751, 3, -0.5, 752, 3, -0.5
*EQUATION
3
1285, 1, 1.0, 749, 1, -0.5, 797, 1, -0.5
*EQUATION
3
1285, 2, 1.0, 749, 2, -0.5, 797, 2, -0.5
*EQUATION
3
1285, 3, 1.0, 749, 3, -0.5, 797, 3, -0.5
*EQUATION
5
1286, 1, 1.0, 749, 1, -0.25, 797, 1, -0.25, 798, 1, -0.25, 750, 1, -0.25
*EQUATION
5
1286, 2, 1.0, 749, 2, -0.25, 797, 2, -0.25, 798, 2, -0.25, 750, 2, -0.25
*EQUATION
5
1286, 3, 1.0, 749, 3, -0.25, 797, 3, -0.25, 798, 3, -0.25, 750, 3, -0.25
*EQUATION
3
1287, 1, 1.0, 750, 1, -0.5, 798, 1, -0.5
*EQUATION
3
1287, 2, 1.0, 750, 2, -0.5, 798, 2, -0.5
*EQUATION
3
1287, 3, 1.0, 750, 3, -0.5, 798, 3, -0.5
*EQUATION
3
1291, 1, 1.0, 751, 1, -0.5, 799, 1, -0.5
*EQUATION
3
1291, 2, 1.0, 751, 2, -0.5, 799, 2, -0.5
*EQUATION
3
1291, 3, 1.0, 751, 3, -0.5, 799, 3, -0.5
*EQUATION
5
1292, 1, 1.0, 751, 1, -0.25, 799, 1, -0.25, 800, 1, -0.25, 752, 1, -0.25
*EQUATION
5
1292, 2, 1.0, 751, 2, -0.25, 799, 2, -0.25, 800, 2, -0.25, 752, 2, -0.25
*EQUATION
5
1292, 3, 1.0, 751, 3, -0.25, 799, 3, -0.25, 800, 3, -0.25, 752, 3, -0.25
*EQUATION
3
1293, 1, 1.0, 752, 1, -0.5, 800, 1, -0.5
*EQUATION
3
1293, 2, 1.0, 752, 2, -0.5, 800, 2, -0.5
*EQUATION
3
1293, 3, 1.0, 752, 3, -0.5, 800, 3, -0.5
*EQUATION
3
1294, 1, 1.0, 797, 1, -0.5, 798, 1, -0.5
*EQUATION
3
1294, 2, 1.0, 797, 2, -0.5, 798, 2, -0.5
*EQUATION
3
1294, 3, 1.0, 797, 3, -0.5, 798, 3, -0.5
*EQUATION
3
1298, 1, 1.0, 799, 1, -0.5, 800, 1, -0.5
*EQUATION
3
1298, 2, 1.0, 799, 2, -0.5, 800, 2, -0.5
*EQUATION
3
1298, 3, 1.0, 799, 3, -0.5, 800, 3, -0.5
*EQUATION
3
1299, 1, 1.0, 755, 1, -0.5, 756, 1, -0.5
*EQUATION
3
1299, 2, 1.0, 755, 2, -0.5, 756, 2, -0.5
*EQUATION
3
1299, 3, 1.0, 755, 3, -0.5, 756, 3, -0.5
*EQUATION
3
1300, 1, 1.0, 755, 1, -0.5, 758, 1, -0.5
*EQUATION
3
1300, 2, 1.0, 755, 2, -0.5, 758, 2, -0.5
*EQUATION
3
1300, 3, 1.0, 755, 3, -0.5, 758, 3, -0.5
*EQUATION
3
1303, 1, 1.0, 758, 1, -0.5, 759, 1, -0.5
*EQUATION
3
1303, 2, 1.0, 758, 2, -0.5, 759, 2, -0.5
*EQUATION
3
1303, 3, 1.0, 758, 3, -0.5, 759, 3, -0.5
*EQUATION
3
1304, 1, 1.0, 755, 1, -0.5, 803, 1, -0.5
*EQUATION
3
1304, 2, 1.0, 755, 2, -0.5, 803, 2, -0.5
*EQUATION
3
1304, 3, 1.0, 755, 3, -0.5, 803, 3, -0.5
*EQUATION
5
1305, 1, 1.0, 755, 1, -0.25, 803, 1, -0.25, 804, 1, -0.25, 756, 1, -0.25
*EQUATION
5
1305, 2, 1.0, 755, 2, -0.25, 803, 2, -0.25, 804, 2, -0.25, 756, 2, -0.25
*EQUATION
5
1305, 3, 1.0, 755, 3, -0.25, 803, 3, -0.25, 804, 3, -0.25, 756, 3, -0.25
*EQUATION
3
1306, 1, 1.0, 756, 1, -0.5, 804, 1, -0.5
*EQUATION
3
1306, 2, 1.0, 756, 2, -0.5, 804, 2, -0.5
*EQUATION
3
1306, 3, 1.0, 756, 3, -0.5, 804, 3, -0.5
*EQUATION
3
1310, 1, 1.0, 758, 1, -0.5, 806, 1, -0.5
*EQUATION
3
1310, 2, 1.0, 758, 2, -0.5, 806, 2, -0.5
*EQUATION
3
1310, 3, 1.0, 758, 3, -0.5, 806, 3, -0.5
*EQUATION
5
1311, 1, 1.0, 758, 1, -0.25, 806, 1, -0.25, 807, 1, -0.25, 759, 1, -0.25
*EQUATION
5
1311, 2, 1.0, 758, 2, -0.25, 806, 2, -0.25, 807, 2, -0.25, 759, 2, -0.25
*EQUATION
5
1311, 3, 1.0, 758, 3, -0.25, 806, 3, -0.25, 807, 3, -0.25, 759, 3, -0.25
*EQUATION
3
1312, 1, 1.0, 759, 1, -0.5, 807, 1, -0.5
*EQUATION
3
1312, 2, 1.0, 759, 2, -0.5, 807, 2, -0.5
*EQUATION
3
1312, 3, 1.0, 759, 3, -0.5, 807, 3, -0.5
*EQUATION
3
1313, 1, 1.0, 803, 1, -0.5, 804, 1, -0.5
*EQUATION
3
1313, 2, 1.0, 803, 2, -0.5, 804, 2, -0.5
*EQUATION
3
1313, 3, 1.0, 803, 3, -0.5, 804, 3, -0.5
*EQUATION
3
1317, 1, 1.0, 806, 1, -0.5, 807, 1, -0.5
*EQUATION
3
1317, 2, 1.0, 806, 2, -0.5, 807, 2, -0.5
*EQUATION
3
1317, 3, 1.0, 806, 3, -0.5, 807, 3, -0.5
*EQUATION
3
1366, 1, 1.0, 797, 1, -0.5, 845, 1, -0.5
*EQUATION
3
1366, 2, 1.0, 797, 2, -0.5, 845, 2, -0.5
*EQUATION
3
1366, 3, 1.0, 797, 3, -0.5, 845, 3, -0.5
*EQUATION
5
1367, 1, 1.0, 797, 1, -0.25, 845, 1, -0.25, 846, 1, -0.25, 798, 1, -0.25
*EQUATION
5
1367, 2, 1.0, 797, 2, -0.25, 845, 2, -0.25, 846, 2, -0.25, 798, 2, -0.25
*EQUATION
5
1367, 3, 1.0, 797, 3, -0.25, 845, 3, -0.25, 846, 3, -0.25, 798, 3, -0.25
*EQUATION
3
1368, 1, 1.0, 798, 1, -0.5, 846, 1, -0.5
*EQUATION
3
1368, 2, 1.0, 798, 2, -0.5, 846, 2, -0.5
*EQUATION
3
1368, 3, 1.0, 798, 3, -0.5, 846, 3, -0.5
*EQUATION
3
1372, 1, 1.0, 799, 1, -0.5, 847, 1, -0.5
*EQUATION
3
1372, 2, 1.0, 799, 2, -0.5, 847, 2, -0.5
*EQUATION
3
1372, 3, 1.0, 799, 3, -0.5, 847, 3, -0.5
*EQUATION
5
1373, 1, 1.0, 799, 1, -0.25, 847, 1, -0.25, 848, 1, -0.25, 800, 1, -0.25
*EQUATION
5
1373, 2, 1.0, 799, 2, -0.25, 847, 2, -0.25, 848, 2, -0.25, 800, 2, -0.25
*EQUATION
5
1373, 3, 1.0, 799, 3, -0.25, 847, 3, -0.25, 848, 3, -0.25, 800, 3, -0.25
*EQUATION
3
1374, 1, 1.0, 800, 1, -0.5, 848, 1, -0.5
*EQUATION
3
1374, 2, 1.0, 800, 2, -0.5, 848, 2, -0.5
*EQUATION
3
1374, 3, 1.0, 800, 3, -0.5, 848, 3, -0.5
*EQUATION
3
1375, 1, 1.0, 845, 1, -0.5, 846, 1, -0.5
*EQUATION
3
1375, 2, 1.0, 845, 2, -0.5, 846, 2, -0.5
*EQUATION
3
1375, 3, 1.0, 845, 3, -0.5, 846, 3, -0.5
*EQUATION
3
1376, 1, 1.0, 845, 1, -0.5, 847, 1, -0.5
*EQUATION
3
1376, 2, 1.0, 845, 2, -0.5, 847, 2, -0.5
*EQUATION
3
1376, 3, 1.0, 845, 3, -0.5, 847, 3, -0.5
*EQUATION
3
1379, 1, 1.0, 847, 1, -0.5, 848, 1, -0.5
*EQUATION
3
1379, 2, 1.0, 847, 2, -0.5, 848, 2, -0.5
*EQUATION
3
1379, 3, 1.0, 847, 3, -0.5, 848, 3, -0.5
*EQUATION
3
1380, 1, 1.0, 803, 1, -0.5, 851, 1, -0.5
*EQUATION
3
1380, 2, 1.0, 803, 2, -0.5, 851, 2, -0.5
*EQUATION
3
1380, 3, 1.0, 803, 3, -0.5, 851, 3, -0.5
*EQUATION
5
1381, 1, 1.0, 803, 1, -0.25, 851, 1, -0.25, 852, 1, -0.25, 804, 1, -0.25
*EQUATION
5
1381, 2, 1.0, 803, 2, -0.25, 851, 2, -0.25, 852, 2, -0.25, 804, 2, -0.25
*EQUATION
5
1381, 3, 1.0, 803, 3, -0.25, 851, 3, -0.25, 852, 3, -0.25, 804, 3, -0.25
*EQUATION
3
1382, 1, 1.0, 804, 1, -0.5, 852, 1, -0.5
*EQUATION
3
1382, 2, 1.0, 804, 2, -0.5, 852, 2, -0.5
*EQUATION
3
1382, 3, 1.0, 804, 3, -0.5, 852, 3, -0.5
*EQUATION
3
1386, 1, 1.0, 806, 1, -0.5, 854, 1, -0.5
*EQUATION
3
1386, 2, 1.0, 806, 2, -0.5, 854, 2, -0.5
*EQUATION
3
1386, 3, 1.0, 806, 3, -0.5, 854, 3, -0.5
*EQUATION
3
1389, 1, 1.0, 851, 1, -0.5, 852, 1, -0.5
*EQUATION
3
1389, 2, 1.0, 851, 2, -0.5, 852, 2, -0.5
*EQUATION
3
1389, 3, 1.0, 851, 3, -0.5, 852, 3, -0.5
*EQUATION
3
1390, 1, 1.0, 851, 1, -0.5, 854, 1, -0.5
*EQUATION
3
1390, 2, 1.0, 851, 2, -0.5, 854, 2, -0.5
*EQUATION
3
1390, 3, 1.0, 851, 3, -0.5, 854, 3, -0.5
*EQUATION
3
1393, 1, 1.0, 854, 1, -0.5, 855, 1, -0.5
*EQUATION
3
1393, 2, 1.0, 854, 2, -0.5, 855, 2, -0.5
*EQUATION
3
1393, 3, 1.0, 854, 3, -0.5, 855, 3, -0.5
*EQUATION
3
1442, 1, 1.0, 851, 1, -0.5, 899, 1, -0.5
*EQUATION
3
1442, 2, 1.0, 851, 2, -0.5, 899, 2, -0.5
*EQUATION
3
1442, 3, 1.0, 851, 3, -0.5, 899, 3, -0.5
*EQUATION
5
1443, 1, 1.0, 851, 1, -0.25, 899, 1, -0.25, 900, 1, -0.25, 852, 1, -0.25
*EQUATION
5
1443, 2, 1.0, 851, 2, -0.25, 899, 2, -0.25, 900, 2, -0.25, 852, 2, -0.25
*EQUATION
5
1443, 3, 1.0, 851, 3, -0.25, 899, 3, -0.25, 900, 3, -0.25, 852, 3, -0.25
*EQUATION
3
1444, 1, 1.0, 852, 1, -0.5, 900, 1, -0.5
*EQUATION
3
1444, 2, 1.0, 852, 2, -0.5, 900, 2, -0.5
*EQUATION
3
1444, 3, 1.0, 852, 3, -0.5, 900, 3, -0.5
*EQUATION
5
1445, 1, 1.0, 851, 1, -0.25, 899, 1, -0.25, 902, 1, -0.25, 854, 1, -0.25
*EQUATION
5
1445, 2, 1.0, 851, 2, -0.25, 899, 2, -0.25, 902, 2, -0.25, 854, 2, -0.25
*EQUATION
5
1445, 3, 1.0, 851, 3, -0.25, 899, 3, -0.25, 902, 3, -0.25, 854, 3, -0.25
*EQUATION
3
1448, 1, 1.0, 854, 1, -0.5, 902, 1, -0.5
*EQUATION
3
1448, 2, 1.0, 854, 2, -0.5, 902, 2, -0.5
*EQUATION
3
1448, 3, 1.0, 854, 3, -0.5, 902, 3, -0.5
*EQUATION
5
1449, 1, 1.0, 854, 1, -0.25, 902, 1, -0.25, 903, 1, -0.25, 855, 1, -0.25
*EQUATION
5
1449, 2, 1.0, 854, 2, -0.25, 902, 2, -0.25, 903, 2, -0.25, 855, 2, -0.25
*EQUATION
5
1449, 3, 1.0, 854, 3, -0.25, 902, 3, -0.25, 903, 3, -0.25, 855, 3, -0.25
*EQUATION
3
1450, 1, 1.0, 855, 1, -0.5, 903, 1, -0.5
*EQUATION
3
1450, 2, 1.0, 855, 2, -0.5, 903, 2, -0.5
*EQUATION
3
1450, 3, 1.0, 855, 3, -0.5, 903, 3, -0.5
*EQUATION
3
1451, 1, 1.0, 899, 1, -0.5, 900, 1, -0.5
*EQUATION
3
1451, 2, 1.0, 899, 2, -0.5, 900, 2, -0.5
*EQUATION
3
1451, 3, 1.0, 899, 3, -0.5, 900, 3, -0.5
*EQUATION
3
1452, 1, 1.0, 899, 1, -0.5, 902, 1, -0.5
*EQUATION
3
1452, 2, 1.0, 899, 2, -0.5, 902, 2, -0.5
*EQUATION
3
1452, 3, 1.0, 899, 3, -0.5, 902, 3, -0.5
*EQUATION
3
1455, 1, 1.0, 902, 1, -0.5, 903, 1, -0.5
*EQUATION
3
1455, 2, 1.0, 902, 2, -0.5, 903, 2, -0.5
*EQUATION
3
1455, 3, 1.0, 902, 3, -0.5, 903, 3, -0.5
*EQUATION
3
1480, 1, 1.0, 918, 1, -0.5, 919, 1, -0.5
*EQUATION
3
1480, 2, 1.0, 918, 2, -0.5, 919, 2, -0.5
*EQUATION
3
1480, 3, 1.0, 918, 3, -0.5, 919, 3, -0.5
*EQUATION
3
1481, 1, 1.0, 918, 1, -0.5, 921, 1, -0.5
*EQUATION
3
1481, 2, 1.0, 918, 2, -0.5, 921, 2, -0.5
*EQUATION
3
1481, 3, 1.0, 918, 3, -0.5, 921, 3, -0.5
*EQUATION
5
1482, 1, 1.0, 918, 1, -0.25, 921, 1, -0.25, 922, 1, -0.25, 919, 1, -0.25
*EQUATION
5
1482, 2, 1.0, 918, 2, -0.25, 921, 2, -0.25, 922, 2, -0.25, 919, 2, -0.25
*EQUATION
5
1482, 3, 1.0, 918, 3, -0.25, 921, 3, -0.25, 922, 3, -0.25, 919, 3, -0.25
*EQUATION
3
1483, 1, 1.0, 919, 1, -0.5, 922, 1, -0.5
*EQUATION
3
1483, 2, 1.0, 919, 2, -0.5, 922, 2, -0.5
*EQUATION
3
1483, 3, 1.0, 919, 3, -0.5, 922, 3, -0.5
*EQUATION
3
1484, 1, 1.0, 921, 1, -0.5, 922, 1, -0.5
*EQUATION
3
1484, 2, 1.0, 921, 2, -0.5, 922, 2, -0.5
*EQUATION
3
1484, 3, 1.0, 921, 3, -0.5, 922, 3, -0.5
*EQUATION
3
1487, 1, 1.0, 919, 1, -0.5, 927, 1, -0.5
*EQUATION
3
1487, 2, 1.0, 919, 2, -0.5, 927, 2, -0.5
*EQUATION
3
1487, 3, 1.0, 919, 3, -0.5, 927, 3, -0.5
*EQUATION
5
1490, 1, 1.0, 919, 1, -0.25, 927, 1, -0.25, 929, 1, -0.25, 922, 1, -0.25
*EQUATION
5
1490, 2, 1.0, 919, 2, -0.25, 927, 2, -0.25, 929, 2, -0.25, 922, 2, -0.25
*EQUATION
5
1490, 3, 1.0, 919, 3, -0.25, 927, 3, -0.25, 929, 3, -0.25, 922, 3, -0.25
*EQUATION
3
1493, 1, 1.0, 922, 1, -0.5, 929, 1, -0.5
*EQUATION
3
1493, 2, 1.0, 922, 2, -0.5, 929, 2, -0.5
*EQUATION
3
1493, 3, 1.0, 922, 3, -0.5, 929, 3, -0.5
*EQUATION
3
1494, 1, 1.0, 2, 1, -0.5, 927, 1, -0.5
*EQUATION
3
1494, 2, 1.0, 2, 2, -0.5, 927, 2, -0.5
*EQUATION
3
1494, 3, 1.0, 2, 3, -0.5, 927, 3, -0.5
*EQUATION
3
1495, 1, 1.0, 2, 1, -0.5, 928, 1, -0.5
*EQUATION
3
1495, 2, 1.0, 2, 2, -0.5, 928, 2, -0.5
*EQUATION
3
1495, 3, 1.0, 2, 3, -0.5, 928, 3, -0.5
*EQUATION
5
1496, 1, 1.0, 2, 1, -0.25, 928, 1, -0.25, 929, 1, -0.25, 927, 1, -0.25
*EQUATION
5
1496, 2, 1.0, 2, 2, -0.25, 928, 2, -0.25, 929, 2, -0.25, 927, 2, -0.25
*EQUATION
5
1496, 3, 1.0, 2, 3, -0.25, 928, 3, -0.25, 929, 3, -0.25, 927, 3, -0.25
*EQUATION
3
1497, 1, 1.0, 927, 1, -0.5, 929, 1, -0.5
*EQUATION
3
1497, 2, 1.0, 927, 2, -0.5, 929, 2, -0.5
*EQUATION
3
1497, 3, 1.0, 927, 3, -0.5, 929, 3, -0.5
*EQUATION
3
1498, 1, 1.0, 928, 1, -0.5, 929, 1, -0.5
*EQUATION
3
1498, 2, 1.0, 928, 2, -0.5, 929, 2, -0.5
*EQUATION
3
1498, 3, 1.0, 928, 3, -0.5, 929, 3, -0.5
*EQUATION
3
1499, 1, 1.0, 921, 1, -0.5, 924, 1, -0.5
*EQUATION
3
1499, 2, 1.0, 921, 2, -0.5, 924, 2, -0.5
*EQUATION
3
1499, 3, 1.0, 921, 3, -0.5, 924, 3, -0.5
*EQUATION
5
1500, 1, 1.0, 921, 1, -0.25, 924, 1, -0.25, 925, 1, -0.25, 922, 1, -0.25
*EQUATION
5
1500, 2, 1.0, 921, 2, -0.25, 924, 2, -0.25, 925, 2, -0.25, 922, 2, -0.25
*EQUATION
5
1500, 3, 1.0, 921, 3, -0.25, 924, 3, -0.25, 925, 3, -0.25, 922, 3, -0.25
*EQUATION
3
1501, 1, 1.0, 922, 1, -0.5, 925, 1, -0.5
*EQUATION
3
1501, 2, 1.0, 922, 2, -0.5, 925, 2, -0.5
*EQUATION
3
1501, 3, 1.0, 922, 3, -0.5, 925, 3, -0.5
*EQUATION
3
1502, 1, 1.0, 924, 1, -0.5, 925, 1, -0.5
*EQUATION
3
1502, 2, 1.0, 924, 2, -0.5, 925, 2, -0.5
*EQUATION
3
1502, 3, 1.0, 924, 3, -0.5, 925, 3, -0.5
*EQUATION
5
1505, 1, 1.0, 922, 1, -0.25, 929, 1, -0.25, 931, 1, -0.25, 925, 1, -0.25
*EQUATION
5
1505, 2, 1.0, 922, 2, -0.25, 929, 2, -0.25, 931, 2, -0.25, 925, 2, -0.25
*EQUATION
5
1505, 3, 1.0, 922, 3, -0.25, 929, 3, -0.25, 931, 3, -0.25, 925, 3, -0.25
*EQUATION
3
1508, 1, 1.0, 925, 1, -0.5, 931, 1, -0.5
*EQUATION
3
1508, 2, 1.0, 925, 2, -0.5, 931, 2, -0.5
*EQUATION
3
1508, 3, 1.0, 925, 3, -0.5, 931, 3, -0.5
*EQUATION
3
1509, 1, 1.0, 3, 1, -0.5, 928, 1, -0.5
*EQUATION
3
1509, 2, 1.0, 3, 2, -0.5, 928, 2, -0.5
*EQUATION
3
1509, 3, 1.0, 3, 3, -0.5, 928, 3, -0.5
*EQUATION
5
1510, 1, 1.0, 928, 1, -0.25, 3, 1, -0.25, 931, 1, -0.25, 929, 1, -0.25
*EQUATION
5
1510, 2, 1.0, 928, 2, -0.25, 3, 2, -0.25, 931, 2, -0.25, 929, 2, -0.25
*EQUATION
5
1510, 3, 1.0, 928, 3, -0.25, 3, 3, -0.25, 931, 3, -0.25, 929, 3, -0.25
*EQUATION
3
1511, 1, 1.0, 929, 1, -0.5, 931, 1, -0.5
*EQUATION
3
1511, 2, 1.0, 929, 2, -0.5, 931, 2, -0.5
*EQUATION
3
1511, 3, 1.0, 929, 3, -0.5, 931, 3, -0.5
*EQUATION
3
1512, 1, 1.0, 3, 1, -0.5, 931, 1, -0.5
*EQUATION
3
1512, 2, 1.0, 3, 2, -0.5, 931, 2, -0.5
*EQUATION
3
1512, 3, 1.0, 3, 3, -0.5, 931, 3, -0.5
*EQUATION
3
1518, 1, 1.0, 9, 1, -0.5, 10, 1, -0.5
*EQUATION
3
1518, 2, 1.0, 9, 2, -0.5, 10, 2, -0.5
*EQUATION
3
1518, 3, 1.0, 9, 3, -0.5, 10, 3, -0.5
*EQUATION
5
1520, 1, 1.0, 9, 1, -0.25, 10, 1, -0.25, 11, 1, -0.25, 12, 1, -0.25
*EQUATION
5
1520, 2, 1.0, 9, 2, -0.25, 10, 2, -0.25, 11, 2, -0.25, 12, 2, -0.25
*EQUATION
5
1520, 3, 1.0, 9, 3, -0.25, 10, 3, -0.25, 11, 3, -0.25, 12, 3, -0.25
*EQUATION
3
1522, 1, 1.0, 11, 1, -0.5, 12, 1, -0.5
*EQUATION
3
1522, 2, 1.0, 11, 2, -0.5, 12, 2, -0.5
*EQUATION
3
1522, 3, 1.0, 11, 3, -0.5, 12, 3, -0.5
*EQUATION
3
1525, 1, 1.0, 10, 1, -0.5, 11, 1, -0.5
*EQUATION
3
1525, 2, 1.0, 10, 2, -0.5, 11, 2, -0.5
*EQUATION
3
1525, 3, 1.0, 10, 3, -0.5, 11, 3, -0.5
*EQUATION
3
1527, 1, 1.0, 924, 1, -0.5, 936, 1, -0.5
*EQUATION
3
1527, 2, 1.0, 924, 2, -0.5, 936, 2, -0.5
*EQUATION
3
1527, 3, 1.0, 924, 3, -0.5, 936, 3, -0.5
*EQUATION
5
1528, 1, 1.0, 924, 1, -0.25, 936, 1, -0.25, 937, 1, -0.25, 925, 1, -0.25
*EQUATION
5
1528, 2, 1.0, 924, 2, -0.25, 936, 2, -0.25, 937, 2, -0.25, 925, 2, -0.25
*EQUATION
5
1528, 3, 1.0, 924, 3, -0.25, 936, 3, -0.25, 937, 3, -0.25, 925, 3, -0.25
*EQUATION
3
1529, 1, 1.0, 925, 1, -0.5, 937, 1, -0.5
*EQUATION
3
1529, 2, 1.0, 925, 2, -0.5, 937, 2, -0.5
*EQUATION
3
1529, 3, 1.0, 925, 3, -0.5, 937, 3, -0.5
*EQUATION
3
1530, 1, 1.0, 936, 1, -0.5, 937, 1, -0.5
*EQUATION
3
1530, 2, 1.0, 936, 2, -0.5, 937, 2, -0.5
*EQUATION
3
1530, 3, 1.0, 936, 3, -0.5, 937, 3, -0.5
*EQUATION
5
1533, 1, 1.0, 925, 1, -0.25, 931, 1, -0.25, 943, 1, -0.25, 937, 1, -0.25
*EQUATION
5
1533, 2, 1.0, 925, 2, -0.25, 931, 2, -0.25, 943, 2, -0.25, 937, 2, -0.25
*EQUATION
5
1533, 3, 1.0, 925, 3, -0.25, 931, 3, -0.25, 943, 3, -0.25, 937, 3, -0.25
*EQUATION
3
1536, 1, 1.0, 937, 1, -0.5, 943, 1, -0.5
*EQUATION
3
1536, 2, 1.0, 937, 2, -0.5, 943, 2, -0.5
*EQUATION
3
1536, 3, 1.0, 937, 3, -0.5, 943, 3, -0.5
*EQUATION
3
1537, 1, 1.0, 3, 1, -0.5, 942, 1, -0.5
*EQUATION
3
1537, 2, 1.0, 3, 2, -0.5, 942, 2, -0.5
*EQUATION
3
1537, 3, 1.0, 3, 3, -0.5, 942, 3, -0.5
*EQUATION
5
1538, 1, 1.0, 3, 1, -0.25, 942, 1, -0.25, 943, 1, -0.25, 931, 1, -0.25
*EQUATION
5
1538, 2, 1.0, 3, 2, -0.25, 942, 2, -0.25, 943, 2, -0.25, 931, 2, -0.25
*EQUATION
5
1538, 3, 1.0, 3, 3, -0.25, 942, 3, -0.25, 943, 3, -0.25, 931, 3, -0.25
*EQUATION
3
1539, 1, 1.0, 931, 1, -0.5, 943, 1, -0.5
*EQUATION
3
1539, 2, 1.0, 931, 2, -0.5, 943, 2, -0.5
*EQUATION
3
1539, 3, 1.0, 931, 3, -0.5, 943, 3, -0.5
*EQUATION
3
1540, 1, 1.0, 942, 1, -0.5, 943, 1, -0.5
*EQUATION
3
1540, 2, 1.0, 942, 2, -0.5, 943, 2, -0.5
*EQUATION
3
1540, 3, 1.0, 942, 3, -0.5, 943, 3, -0.5
*EQUATION
3
1541, 1, 1.0, 936, 1, -0.5, 939, 1, -0.5
*EQUATION
3
1541, 2, 1.0, 936, 2, -0.5, 939, 2, -0.5
*EQUATION
3
1541, 3, 1.0, 936, 3, -0.5, 939, 3, -0.5
*EQUATION
5
1542, 1, 1.0, 936, 1, -0.25, 939, 1, -0.25, 940, 1, -0.25, 937, 1, -0.25
*EQUATION
5
1542, 2, 1.0, 936, 2, -0.25, 939, 2, -0.25, 940, 2, -0.25, 937, 2, -0.25
*EQUATION
5
1542, 3, 1.0, 936, 3, -0.25, 939, 3, -0.25, 940, 3, -0.25, 937, 3, -0.25
*EQUATION
3
1543, 1, 1.0, 937, 1, -0.5, 940, 1, -0.5
*EQUATION
3
1543, 2, 1.0, 937, 2, -0.5, 940, 2, -0.5
*EQUATION
3
1543, 3, 1.0, 937, 3, -0.5, 940, 3, -0.5
*EQUATION
3
1544, 1, 1.0, 939, 1, -0.5, 940, 1, -0.5
*EQUATION
3
1544, 2, 1.0, 939, 2, -0.5, 940, 2, -0.5
*EQUATION
3
1544, 3, 1.0, 939, 3, -0.5, 940, 3, -0.5
*EQUATION
5
1547, 1, 1.0, 937, 1, -0.25, 943, 1, -0.25, 945, 1, -0.25, 940, 1, -0.25
*EQUATION
5
1547, 2, 1.0, 937, 2, -0.25, 943, 2, -0.25, 945, 2, -0.25, 940, 2, -0.25
*EQUATION
5
1547, 3, 1.0, 937, 3, -0.25, 943, 3, -0.25, 945, 3, -0.25, 940, 3, -0.25
*EQUATION
3
1550, 1, 1.0, 940, 1, -0.5, 945, 1, -0.5
*EQUATION
3
1550, 2, 1.0, 940, 2, -0.5, 945, 2, -0.5
*EQUATION
3
1550, 3, 1.0, 940, 3, -0.5, 945, 3, -0.5
*EQUATION
3
1551, 1, 1.0, 25, 1, -0.5, 942, 1, -0.5
*EQUATION
3
1551, 2, 1.0, 25, 2, -0.5, 942, 2, -0.5
*EQUATION
3
1551, 3, 1.0, 25, 3, -0.5, 942, 3, -0.5
*EQUATION
5
1552, 1, 1.0, 942, 1, -0.25, 25, 1, -0.25, 945, 1, -0.25, 943, 1, -0.25
*EQUATION
5
1552, 2, 1.0, 942, 2, -0.25, 25, 2, -0.25, 945, 2, -0.25, 943, 2, -0.25
*EQUATION
5
1552, 3, 1.0, 942, 3, -0.25, 25, 3, -0.25, 945, 3, -0.25, 943, 3, -0.25
*EQUATION
3
1553, 1, 1.0, 943, 1, -0.5, 945, 1, -0.5
*EQUATION
3
1553, 2, 1.0, 943, 2, -0.5, 945, 2, -0.5
*EQUATION
3
1553, 3, 1.0, 943, 3, -0.5, 945, 3, -0.5
*EQUATION
3
1554, 1, 1.0, 25, 1, -0.5, 945, 1, -0.5
*EQUATION
3
1554, 2, 1.0, 25, 2, -0.5, 945, 2, -0.5
*EQUATION
3
1554, 3, 1.0, 25, 3, -0.5, 945, 3, -0.5
*EQUATION
5
1559, 1, 1.0, 12, 1, -0.25, 11, 1, -0.25, 29, 1, -0.25, 30, 1, -0.25
*EQUATION
5
1559, 2, 1.0, 12, 2, -0.25, 11, 2, -0.25, 29, 2, -0.25, 30, 2, -0.25
*EQUATION
5
1559, 3, 1.0, 12, 3, -0.25, 11, 3, -0.25, 29, 3, -0.25, 30, 3, -0.25
*EQUATION
3
1561, 1, 1.0, 29, 1, -0.5, 30, 1, -0.5
*EQUATION
3
1561, 2, 1.0, 29, 2, -0.5, 30, 2, -0.5
*EQUATION
3
1561, 3, 1.0, 29, 3, -0.5, 30, 3, -0.5
*EQUATION
3
1563, 1, 1.0, 11, 1, -0.5, 29, 1, -0.5
*EQUATION
3
1563, 2, 1.0, 11, 2, -0.5, 29, 2, -0.5
*EQUATION
3
1563, 3, 1.0, 11, 3, -0.5, 29, 3, -0.5
*EQUATION
3
1566, 1, 1.0, 10, 1, -0.5, 101, 1, -0.5
*EQUATION
3
1566, 2, 1.0, 10, 2, -0.5, 101, 2, -0.5
*EQUATION
3
1566, 3, 1.0, 10, 3, -0.5, 101, 3, -0.5
*EQUATION
5
1568, 1, 1.0, 10, 1, -0.25, 101, 1, -0.25, 102, 1, -0.25, 11, 1, -0.25
*EQUATION
5
1568, 2, 1.0, 10, 2, -0.25, 101, 2, -0.25, 102, 2, -0.25, 11, 2, -0.25
*EQUATION
5
1568, 3, 1.0, 10, 3, -0.25, 101, 3, -0.25, 102, 3, -0.25, 11, 3, -0.25
*EQUATION
3
1570, 1, 1.0, 11, 1, -0.5, 102, 1, -0.5
*EQUATION
3
1570, 2, 1.0, 11, 2, -0.5, 102, 2, -0.5
*EQUATION
3
1570, 3, 1.0, 11, 3, -0.5, 102, 3, -0.5
*EQUATION
3
1571, 1, 1.0, 99, 1, -0.5, 101, 1, -0.5
*EQUATION
3
1571, 2, 1.0, 99, 2, -0.5, 101, 2, -0.5
*EQUATION
3
1571, 3, 1.0, 99, 3, -0.5, 101, 3, -0.5
*EQUATION
5
1572, 1, 1.0, 99, 1, -0.25, 100, 1, -0.25, 102, 1, -0.25, 101, 1, -0.25
*EQUATION
5
1572, 2, 1.0, 99, 2, -0.25, 100, 2, -0.25, 102, 2, -0.25, 101, 2, -0.25
*EQUATION
5
1572, 3, 1.0, 99, 3, -0.25, 100, 3, -0.25, 102, 3, -0.25, 101, 3, -0.25
*EQUATION
3
1573, 1, 1.0, 101, 1, -0.5, 102, 1, -0.5
*EQUATION
3
1573, 2, 1.0, 101, 2, -0.5, 102, 2, -0.5
*EQUATION
3
1573, 3, 1.0, 101, 3, -0.5, 102, 3, -0.5
*EQUATION
3
1574, 1, 1.0, 100, 1, -0.5, 102, 1, -0.5
*EQUATION
3
1574, 2, 1.0, 100, 2, -0.5, 102, 2, -0.5
*EQUATION
3
1574, 3, 1.0, 100, 3, -0.5, 102, 3, -0.5
*EQUATION
5
1576, 1, 1.0, 11, 1, -0.25, 102, 1, -0.25, 111, 1, -0.25, 29, 1, -0.25
*EQUATION
5
1576, 2, 1.0, 11, 2, -0.25, 102, 2, -0.25, 111, 2, -0.25, 29, 2, -0.25
*EQUATION
5
1576, 3, 1.0, 11, 3, -0.25, 102, 3, -0.25, 111, 3, -0.25, 29, 3, -0.25
*EQUATION
3
1578, 1, 1.0, 29, 1, -0.5, 111, 1, -0.5
*EQUATION
3
1578, 2, 1.0, 29, 2, -0.5, 111, 2, -0.5
*EQUATION
3
1578, 3, 1.0, 29, 3, -0.5, 111, 3, -0.5
*EQUATION
5
1579, 1, 1.0, 100, 1, -0.25, 110, 1, -0.25, 111, 1, -0.25, 102, 1, -0.25
*EQUATION
5
1579, 2, 1.0, 100, 2, -0.25, 110, 2, -0.25, 111, 2, -0.25, 102, 2, -0.25
*EQUATION
5
1579, 3, 1.0, 100, 3, -0.25, 110, 3, -0.25, 111, 3, -0.25, 102, 3, -0.25
*EQUATION
3
1580, 1, 1.0, 102, 1, -0.5, 111, 1, -0.5
*EQUATION
3
1580, 2, 1.0, 102, 2, -0.5, 111, 2, -0.5
*EQUATION
3
1580, 3, 1.0, 102, 3, -0.5, 111, 3, -0.5
*EQUATION
3
1581, 1, 1.0, 110, 1, -0.5, 111, 1, -0.5
*EQUATION
3
1581, 2, 1.0, 110, 2, -0.5, 111, 2, -0.5
*EQUATION
3
1581, 3, 1.0, 110, 3, -0.5, 111, 3, -0.5
*EQUATION
3
1584, 1, 1.0, 99, 1, -0.5, 147, 1, -0.5
*EQUATION
3
1584, 2, 1.0, 99, 2, -0.5, 147, 2, -0.5
*EQUATION
3
1584, 3, 1.0, 99, 3, -0.5, 147, 3, -0.5
*EQUATION
5
1587, 1, 1.0, 99, 1, -0.25, 147, 1, -0.25, 148, 1, -0.25, 100, 1, -0.25
*EQUATION
5
1587, 2, 1.0, 99, 2, -0.25, 147, 2, -0.25, 148, 2, -0.25, 100, 2, -0.25
*EQUATION
5
1587, 3, 1.0, 99, 3, -0.25, 147, 3, -0.25, 148, 3, -0.25, 100, 3, -0.25
*EQUATION
3
1590, 1, 1.0, 100, 1, -0.5, 148, 1, -0.5
*EQUATION
3
1590, 2, 1.0, 100, 2, -0.5, 148, 2, -0.5
*EQUATION
3
1590, 3, 1.0, 100, 3, -0.5, 148, 3, -0.5
*EQUATION
3
1594, 1, 1.0, 147, 1, -0.5, 148, 1, -0.5
*EQUATION
3
1594, 2, 1.0, 147, 2, -0.5, 148, 2, -0.5
*EQUATION
3
1594, 3, 1.0, 147, 3, -0.5, 148, 3, -0.5
*EQUATION
5
1598, 1, 1.0, 100, 1, -0.25, 148, 1, -0.25, 158, 1, -0.25, 110, 1, -0.25
*EQUATION
5
1598, 2, 1.0, 100, 2, -0.25, 148, 2, -0.25, 158, 2, -0.25, 110, 2, -0.25
*EQUATION
5
1598, 3, 1.0, 100, 3, -0.25, 148, 3, -0.25, 158, 3, -0.25, 110, 3, -0.25
*EQUATION
3
1601, 1, 1.0, 110, 1, -0.5, 158, 1, -0.5
*EQUATION
3
1601, 2, 1.0, 110, 2, -0.5, 158, 2, -0.5
*EQUATION
3
1601, 3, 1.0, 110, 3, -0.5, 158, 3, -0.5
*EQUATION
3
1604, 1, 1.0, 148, 1, -0.5, 158, 1, -0.5
*EQUATION
3
1604, 2, 1.0, 148, 2, -0.5, 158, 2, -0.5
*EQUATION
3
1604, 3, 1.0, 148, 3, -0.5, 158, 3, -0.5
*EQUATION
3
1608, 1, 1.0, 147, 1, -0.5, 195, 1, -0.5
*EQUATION
3
1608, 2, 1.0, 147, 2, -0.5, 195, 2, -0.5
*EQUATION
3
1608, 3, 1.0, 147, 3, -0.5, 195, 3, -0.5
*EQUATION
5
1611, 1, 1.0, 147, 1, -0.25, 195, 1, -0.25, 196, 1, -0.25, 148, 1, -0.25
*EQUATION
5
1611, 2, 1.0, 147, 2, -0.25, 195, 2, -0.25, 196, 2, -0.25, 148, 2, -0.25
*EQUATION
5
1611, 3, 1.0, 147, 3, -0.25, 195, 3, -0.25, 196, 3, -0.25, 148, 3, -0.25
*EQUATION
3
1614, 1, 1.0, 148, 1, -0.5, 196, 1, -0.5
*EQUATION
3
1614, 2, 1.0, 148, 2, -0.5, 196, 2, -0.5
*EQUATION
3
1614, 3, 1.0, 148, 3, -0.5, 196, 3, -0.5
*EQUATION
3
1615, 1, 1.0, 193, 1, -0.5, 195, 1, -0.5
*EQUATION
3
1615, 2, 1.0, 193, 2, -0.5, 195, 2, -0.5
*EQUATION
3
1615, 3, 1.0, 193, 3, -0.5, 195, 3, -0.5
*EQUATION
3
1616, 1, 1.0, 193, 1, -0.5, 194, 1, -0.5
*EQUATION
3
1616, 2, 1.0, 193, 2, -0.5, 194, 2, -0.5
*EQUATION
3
1616, 3, 1.0, 193, 3, -0.5, 194, 3, -0.5
*EQUATION
5
1617, 1, 1.0, 193, 1, -0.25, 194, 1, -0.25, 196, 1, -0.25, 195, 1, -0.25
*EQUATION
5
1617, 2, 1.0, 193, 2, -0.25, 194, 2, -0.25, 196, 2, -0.25, 195, 2, -0.25
*EQUATION
5
1617, 3, 1.0, 193, 3, -0.25, 194, 3, -0.25, 196, 3, -0.25, 195, 3, -0.25
*EQUATION
3
1618, 1, 1.0, 195, 1, -0.5, 196, 1, -0.5
*EQUATION
3
1618, 2, 1.0, 195, 2, -0.5, 196, 2, -0.5
*EQUATION
3
1618, 3, 1.0, 195, 3, -0.5, 196, 3, -0.5
*EQUATION
3
1619, 1, 1.0, 194, 1, -0.5, 196, 1, -0.5
*EQUATION
3
1619, 2, 1.0, 194, 2, -0.5, 196, 2, -0.5
*EQUATION
3
1619, 3, 1.0, 194, 3, -0.5, 196, 3, -0.5
*EQUATION
5
1622, 1, 1.0, 148, 1, -0.25, 196, 1, -0.25, 206, 1, -0.25, 158, 1, -0.25
*EQUATION
5
1622, 2, 1.0, 148, 2, -0.25, 196, 2, -0.25, 206, 2, -0.25, 158, 2, -0.25
*EQUATION
5
1622, 3, 1.0, 148, 3, -0.25, 196, 3, -0.25, 206, 3, -0.25, 158, 3, -0.25
*EQUATION
3
1625, 1, 1.0, 158, 1, -0.5, 206, 1, -0.5
*EQUATION
3
1625, 2, 1.0, 158, 2, -0.5, 206, 2, -0.5
*EQUATION
3
1625, 3, 1.0, 158, 3, -0.5, 206, 3, -0.5
*EQUATION
3
1626, 1, 1.0, 194, 1, -0.5, 205, 1, -0.5
*EQUATION
3
1626, 2, 1.0, 194, 2, -0.5, 205, 2, -0.5
*EQUATION
3
1626, 3, 1.0, 194, 3, -0.5, 205, 3, -0.5
*EQUATION
5
1627, 1, 1.0, 194, 1, -0.25, 205, 1, -0.25, 206, 1, -0.25, 196, 1, -0.25
*EQUATION
5
1627, 2, 1.0, 194, 2, -0.25, 205, 2, -0.25, 206, 2, -0.25, 196, 2, -0.25
*EQUATION
5
1627, 3, 1.0, 194, 3, -0.25, 205, 3, -0.25, 206, 3, -0.25, 196, 3, -0.25
*EQUATION
3
1628, 1, 1.0, 196, 1, -0.5, 206, 1, -0.5
*EQUATION
3
1628, 2, 1.0, 196, 2, -0.5, 206, 2, -0.5
*EQUATION
3
1628, 3, 1.0, 196, 3, -0.5, 206, 3, -0.5
*EQUATION
3
1629, 1, 1.0, 205, 1, -0.5, 206, 1, -0.5
*EQUATION
3
1629, 2, 1.0, 205, 2, -0.5, 206, 2, -0.5
*EQUATION
3
1629, 3, 1.0, 205, 3, -0.5, 206, 3, -0.5
*EQUATION
3
1630, 1, 1.0, 355, 1, -0.5, 357, 1, -0.5
*EQUATION
3
1630, 2, 1.0, 355, 2, -0.5, 357, 2, -0.5
*EQUATION
3
1630, 3, 1.0, 355, 3, -0.5, 357, 3, -0.5
*EQUATION
3
1631, 1, 1.0, 355, 1, -0.5, 356, 1, -0.5
*EQUATION
3
1631, 2, 1.0, 355, 2, -0.5, 356, 2, -0.5
*EQUATION
3
1631, 3, 1.0, 355, 3, -0.5, 356, 3, -0.5
*EQUATION
5
1632, 1, 1.0, 355, 1, -0.25, 356, 1, -0.25, 358, 1, -0.25, 357, 1, -0.25
*EQUATION
5
1632, 2, 1.0, 355, 2, -0.25, 356, 2, -0.25, 358, 2, -0.25, 357, 2, -0.25
*EQUATION
5
1632, 3, 1.0, 355, 3, -0.25, 356, 3, -0.25, 358, 3, -0.25, 357, 3, -0.25
*EQUATION
3
1633, 1, 1.0, 357, 1, -0.5, 358, 1, -0.5
*EQUATION
3
1633, 2, 1.0, 357, 2, -0.5, 358, 2, -0.5
*EQUATION
3
1633, 3, 1.0, 357, 3, -0.5, 358, 3, -0.5
*EQUATION
3
1634, 1, 1.0, 356, 1, -0.5, 358, 1, -0.5
*EQUATION
3
1634, 2, 1.0, 356, 2, -0.5, 358, 2, -0.5
*EQUATION
3
1634, 3, 1.0, 356, 3, -0.5, 358, 3, -0.5
*EQUATION
3
1641, 1, 1.0, 356, 1, -0.5, 404, 1, -0.5
*EQUATION
3
1641, 2, 1.0, 356, 2, -0.5, 404, 2, -0.5
*EQUATION
3
1641, 3, 1.0, 356, 3, -0.5, 404, 3, -0.5
*EQUATION
5
1642, 1, 1.0, 356, 1, -0.25, 404, 1, -0.25, 406, 1, -0.25, 358, 1, -0.25
*EQUATION
5
1642, 2, 1.0, 356, 2, -0.25, 404, 2, -0.25, 406, 2, -0.25, 358, 2, -0.25
*EQUATION
5
1642, 3, 1.0, 356, 3, -0.25, 404, 3, -0.25, 406, 3, -0.25, 358, 3, -0.25
*EQUATION
3
1643, 1, 1.0, 358, 1, -0.5, 406, 1, -0.5
*EQUATION
3
1643, 2, 1.0, 358, 2, -0.5, 406, 2, -0.5
*EQUATION
3
1643, 3, 1.0, 358, 3, -0.5, 406, 3, -0.5
*EQUATION
3
1648, 1, 1.0, 404, 1, -0.5, 406, 1, -0.5
*EQUATION
3
1648, 2, 1.0, 404, 2, -0.5, 406, 2, -0.5
*EQUATION
3
1648, 3, 1.0, 404, 3, -0.5, 406, 3, -0.5
*EQUATION
3
1649, 1, 1.0, 357, 1, -0.5, 359, 1, -0.5
*EQUATION
3
1649, 2, 1.0, 357, 2, -0.5, 359, 2, -0.5
*EQUATION
3
1649, 3, 1.0, 357, 3, -0.5, 359, 3, -0.5
*EQUATION
5
1650, 1, 1.0, 357, 1, -0.25, 358, 1, -0.25, 360, 1, -0.25, 359, 1, -0.25
*EQUATION
5
1650, 2, 1.0, 357, 2, -0.25, 358, 2, -0.25, 360, 2, -0.25, 359, 2, -0.25
*EQUATION
5
1650, 3, 1.0, 357, 3, -0.25, 358, 3, -0.25, 360, 3, -0.25, 359, 3, -0.25
*EQUATION
3
1651, 1, 1.0, 359, 1, -0.5, 360, 1, -0.5
*EQUATION
3
1651, 2, 1.0, 359, 2, -0.5, 360, 2, -0.5
*EQUATION
3
1651, 3, 1.0, 359, 3, -0.5, 360, 3, -0.5
*EQUATION
3
1652, 1, 1.0, 358, 1, -0.5, 360, 1, -0.5
*EQUATION
3
1652, 2, 1.0, 358, 2, -0.5, 360, 2, -0.5
*EQUATION
3
1652, 3, 1.0, 358, 3, -0.5, 360, 3, -0.5
*EQUATION
5
1657, 1, 1.0, 358, 1, -0.25, 406, 1, -0.25, 408, 1, -0.25, 360, 1, -0.25
*EQUATION
5
1657, 2, 1.0, 358, 2, -0.25, 406, 2, -0.25, 408, 2, -0.25, 360, 2, -0.25
*EQUATION
5
1657, 3, 1.0, 358, 3, -0.25, 406, 3, -0.25, 408, 3, -0.25, 360, 3, -0.25
*EQUATION
3
1658, 1, 1.0, 360, 1, -0.5, 408, 1, -0.5
*EQUATION
3
1658, 2, 1.0, 360, 2, -0.5, 408, 2, -0.5
*EQUATION
3
1658, 3, 1.0, 360, 3, -0.5, 408, 3, -0.5
*EQUATION
3
1662, 1, 1.0, 406, 1, -0.5, 408, 1, -0.5
*EQUATION
3
1662, 2, 1.0, 406, 2, -0.5, 408, 2, -0.5
*EQUATION
3
1662, 3, 1.0, 406, 3, -0.5, 408, 3, -0.5
*EQUATION
3
1663, 1, 1.0, 379, 1, -0.5, 380, 1, -0.5
*EQUATION
3
1663, 2, 1.0, 379, 2, -0.5, 380, 2, -0.5
*EQUATION
3
1663, 3, 1.0, 379, 3, -0.5, 380, 3, -0.5
*EQUATION
3
1664, 1, 1.0, 379, 1, -0.5, 382, 1, -0.5
*EQUATION
3
1664, 2, 1.0, 379, 2, -0.5, 382, 2, -0.5
*EQUATION
3
1664, 3, 1.0, 379, 3, -0.5, 382, 3, -0.5
*EQUATION
5
1665, 1, 1.0, 379, 1, -0.25, 382, 1, -0.25, 383, 1, -0.25, 380, 1, -0.25
*EQUATION
5
1665, 2, 1.0, 379, 2, -0.25, 382, 2, -0.25, 383, 2, -0.25, 380, 2, -0.25
*EQUATION
5
1665, 3, 1.0, 379, 3, -0.25, 382, 3, -0.25, 383, 3, -0.25, 380, 3, -0.25
*EQUATION
3
1666, 1, 1.0, 380, 1, -0.5, 383, 1, -0.5
*EQUATION
3
1666, 2, 1.0, 380, 2, -0.5, 383, 2, -0.5
*EQUATION
3
1666, 3, 1.0, 380, 3, -0.5, 383, 3, -0.5
*EQUATION
3
1667, 1, 1.0, 382, 1, -0.5, 383, 1, -0.5
*EQUATION
3
1667, 2, 1.0, 382, 2, -0.5, 383, 2, -0.5
*EQUATION
3
1667, 3, 1.0, 382, 3, -0.5, 383, 3, -0.5
*EQUATION
3
1668, 1, 1.0, 379, 1, -0.5, 427, 1, -0.5
*EQUATION
3
1668, 2, 1.0, 379, 2, -0.5, 427, 2, -0.5
*EQUATION
3
1668, 3, 1.0, 379, 3, -0.5, 427, 3, -0.5
*EQUATION
5
1669, 1, 1.0, 379, 1, -0.25, 427, 1, -0.25, 428, 1, -0.25, 380, 1, -0.25
*EQUATION
5
1669, 2, 1.0, 379, 2, -0.25, 427, 2, -0.25, 428, 2, -0.25, 380, 2, -0.25
*EQUATION
5
1669, 3, 1.0, 379, 3, -0.25, 427, 3, -0.25, 428, 3, -0.25, 380, 3, -0.25
*EQUATION
3
1670, 1, 1.0, 380, 1, -0.5, 428, 1, -0.5
*EQUATION
3
1670, 2, 1.0, 380, 2, -0.5, 428, 2, -0.5
*EQUATION
3
1670, 3, 1.0, 380, 3, -0.5, 428, 3, -0.5
*EQUATION
3
1677, 1, 1.0, 427, 1, -0.5, 428, 1, -0.5
*EQUATION
3
1677, 2, 1.0, 427, 2, -0.5, 428, 2, -0.5
*EQUATION
3
1677, 3, 1.0, 427, 3, -0.5, 428, 3, -0.5
*EQUATION
3
1682, 1, 1.0, 380, 1, -0.5, 381, 1, -0.5
*EQUATION
3
1682, 2, 1.0, 380, 2, -0.5, 381, 2, -0.5
*EQUATION
3
1682, 3, 1.0, 380, 3, -0.5, 381, 3, -0.5
*EQUATION
5
1683, 1, 1.0, 380, 1, -0.25, 383, 1, -0.25, 384, 1, -0.25, 381, 1, -0.25
*EQUATION
5
1683, 2, 1.0, 380, 2, -0.25, 383, 2, -0.25, 384, 2, -0.25, 381, 2, -0.25
*EQUATION
5
1683, 3, 1.0, 380, 3, -0.25, 383, 3, -0.25, 384, 3, -0.25, 381, 3, -0.25
*EQUATION
3
1684, 1, 1.0, 381, 1, -0.5, 384, 1, -0.5
*EQUATION
3
1684, 2, 1.0, 381, 2, -0.5, 384, 2, -0.5
*EQUATION
3
1684, 3, 1.0, 381, 3, -0.5, 384, 3, -0.5
*EQUATION
3
1685, 1, 1.0, 383, 1, -0.5, 384, 1, -0.5
*EQUATION
3
1685, 2, 1.0, 383, 2, -0.5, 384, 2, -0.5
*EQUATION
3
1685, 3, 1.0, 383, 3, -0.5, 384, 3, -0.5
*EQUATION
5
1686, 1, 1.0, 380, 1, -0.25, 428, 1, -0.25, 429, 1, -0.25, 381, 1, -0.25
*EQUATION
5
1686, 2, 1.0, 380, 2, -0.25, 428, 2, -0.25, 429, 2, -0.25, 381, 2, -0.25
*EQUATION
5
1686, 3, 1.0, 380, 3, -0.25, 428, 3, -0.25, 429, 3, -0.25, 381, 3, -0.25
*EQUATION
3
1687, 1, 1.0, 381, 1, -0.5, 429, 1, -0.5
*EQUATION
3
1687, 2, 1.0, 381, 2, -0.5, 429, 2, -0.5
*EQUATION
3
1687, 3, 1.0, 381, 3, -0.5, 429, 3, -0.5
*EQUATION
3
1692, 1, 1.0, 428, 1, -0.5, 429, 1, -0.5
*EQUATION
3
1692, 2, 1.0, 428, 2, -0.5, 429, 2, -0.5
*EQUATION
3
1692, 3, 1.0, 428, 3, -0.5, 429, 3, -0.5
*EQUATION
3
1702, 1, 1.0, 404, 1, -0.5, 452, 1, -0.5
*EQUATION
3
1702, 2, 1.0, 404, 2, -0.5, 452, 2, -0.5
*EQUATION
3
1702, 3, 1.0, 404, 3, -0.5, 452, 3, -0.5
*EQUATION
5
1703, 1, 1.0, 404, 1, -0.25, 452, 1, -0.25, 454, 1, -0.25, 406, 1, -0.25
*EQUATION
5
1703, 2, 1.0, 404, 2, -0.25, 452, 2, -0.25, 454, 2, -0.25, 406, 2, -0.25
*EQUATION
5
1703, 3, 1.0, 404, 3, -0.25, 452, 3, -0.25, 454, 3, -0.25, 406, 3, -0.25
*EQUATION
3
1704, 1, 1.0, 406, 1, -0.5, 454, 1, -0.5
*EQUATION
3
1704, 2, 1.0, 406, 2, -0.5, 454, 2, -0.5
*EQUATION
3
1704, 3, 1.0, 406, 3, -0.5, 454, 3, -0.5
*EQUATION
3
1708, 1, 1.0, 452, 1, -0.5, 454, 1, -0.5
*EQUATION
3
1708, 2, 1.0, 452, 2, -0.5, 454, 2, -0.5
*EQUATION
3
1708, 3, 1.0, 452, 3, -0.5, 454, 3, -0.5
*EQUATION
5
1713, 1, 1.0, 406, 1, -0.25, 454, 1, -0.25, 456, 1, -0.25, 408, 1, -0.25
*EQUATION
5
1713, 2, 1.0, 406, 2, -0.25, 454, 2, -0.25, 456, 2, -0.25, 408, 2, -0.25
*EQUATION
5
1713, 3, 1.0, 406, 3, -0.25, 454, 3, -0.25, 456, 3, -0.25, 408, 3, -0.25
*EQUATION
3
1714, 1, 1.0, 408, 1, -0.5, 456, 1, -0.5
*EQUATION
3
1714, 2, 1.0, 408, 2, -0.5, 456, 2, -0.5
*EQUATION
3
1714, 3, 1.0, 408, 3, -0.5, 456, 3, -0.5
*EQUATION
3
1715, 1, 1.0, 427, 1, -0.5, 475, 1, -0.5
*EQUATION
3
1715, 2, 1.0, 427, 2, -0.5, 475, 2, -0.5
*EQUATION
3
1715, 3, 1.0, 427, 3, -0.5, 475, 3, -0.5
*EQUATION
5
1716, 1, 1.0, 427, 1, -0.25, 475, 1, -0.25, 476, 1, -0.25, 428, 1, -0.25
*EQUATION
5
1716, 2, 1.0, 427, 2, -0.25, 475, 2, -0.25, 476, 2, -0.25, 428, 2, -0.25
*EQUATION
5
1716, 3, 1.0, 427, 3, -0.25, 475, 3, -0.25, 476, 3, -0.25, 428, 3, -0.25
*EQUATION
3
1717, 1, 1.0, 428, 1, -0.5, 476, 1, -0.5
*EQUATION
3
1717, 2, 1.0, 428, 2, -0.5, 476, 2, -0.5
*EQUATION
3
1717, 3, 1.0, 428, 3, -0.5, 476, 3, -0.5
*EQUATION
3
1724, 1, 1.0, 475, 1, -0.5, 476, 1, -0.5
*EQUATION
3
1724, 2, 1.0, 475, 2, -0.5, 476, 2, -0.5
*EQUATION
3
1724, 3, 1.0, 475, 3, -0.5, 476, 3, -0.5
*EQUATION
5
1728, 1, 1.0, 428, 1, -0.25, 476, 1, -0.25, 477, 1, -0.25, 429, 1, -0.25
*EQUATION
5
1728, 2, 1.0, 428, 2, -0.25, 476, 2, -0.25, 477, 2, -0.25, 429, 2, -0.25
*EQUATION
5
1728, 3, 1.0, 428, 3, -0.25, 476, 3, -0.25, 477, 3, -0.25, 429, 3, -0.25
*EQUATION
3
1729, 1, 1.0, 429, 1, -0.5, 477, 1, -0.5
*EQUATION
3
1729, 2, 1.0, 429, 2, -0.5, 477, 2, -0.5
*EQUATION
3
1729, 3, 1.0, 429, 3, -0.5, 477, 3, -0.5
*EQUATION
3
1738, 1, 1.0, 452, 1, -0.5, 500, 1, -0.5
*EQUATION
3
1738, 2, 1.0, 452, 2, -0.5, 500, 2, -0.5
*EQUATION
3
1738, 3, 1.0, 452, 3, -0.5, 500, 3, -0.5
*EQUATION
5
1739, 1, 1.0, 452, 1, -0.25, 500, 1, -0.25, 502, 1, -0.25, 454, 1, -0.25
*EQUATION
5
1739, 2, 1.0, 452, 2, -0.25, 500, 2, -0.25, 502, 2, -0.25, 454, 2, -0.25
*EQUATION
5
1739, 3, 1.0, 452, 3, -0.25, 500, 3, -0.25, 502, 3, -0.25, 454, 3, -0.25
*EQUATION
3
1740, 1, 1.0, 475, 1, -0.5, 523, 1, -0.5
*EQUATION
3
1740, 2, 1.0, 475, 2, -0.5, 523, 2, -0.5
*EQUATION
3
1740, 3, 1.0, 475, 3, -0.5, 523, 3, -0.5
*EQUATION
5
1741, 1, 1.0, 475, 1, -0.25, 523, 1, -0.25, 524, 1, -0.25, 476, 1, -0.25
*EQUATION
5
1741, 2, 1.0, 475, 2, -0.25, 523, 2, -0.25, 524, 2, -0.25, 476, 2, -0.25
*EQUATION
5
1741, 3, 1.0, 475, 3, -0.25, 523, 3, -0.25, 524, 3, -0.25, 476, 3, -0.25
*EQUATION
3
1746, 1, 1.0, 502, 1, -0.5, 506, 1, -0.5
*EQUATION
3
1746, 2, 1.0, 502, 2, -0.5, 506, 2, -0.5
*EQUATION
3
1746, 3, 1.0, 502, 3, -0.5, 506, 3, -0.5
*EQUATION
5
1747, 1, 1.0, 502, 1, -0.25, 506, 1, -0.25, 507, 1, -0.25, 504, 1, -0.25
*EQUATION
5
1747, 2, 1.0, 502, 2, -0.25, 506, 2, -0.25, 507, 2, -0.25, 504, 2, -0.25
*EQUATION
5
1747, 3, 1.0, 502, 3, -0.25, 506, 3, -0.25, 507, 3, -0.25, 504, 3, -0.25
*EQUATION
3
1748, 1, 1.0, 504, 1, -0.5, 507, 1, -0.5
*EQUATION
3
1748, 2, 1.0, 504, 2, -0.5, 507, 2, -0.5
*EQUATION
3
1748, 3, 1.0, 504, 3, -0.5, 507, 3, -0.5
*EQUATION
3
1749, 1, 1.0, 506, 1, -0.5, 507, 1, -0.5
*EQUATION
3
1749, 2, 1.0, 506, 2, -0.5, 507, 2, -0.5
*EQUATION
3
1749, 3, 1.0, 506, 3, -0.5, 507, 3, -0.5
*EQUATION
5
1750, 1, 1.0, 502, 1, -0.25, 550, 1, -0.25, 554, 1, -0.25, 506, 1, -0.25
*EQUATION
5
1750, 2, 1.0, 502, 2, -0.25, 550, 2, -0.25, 554, 2, -0.25, 506, 2, -0.25
*EQUATION
5
1750, 3, 1.0, 502, 3, -0.25, 550, 3, -0.25, 554, 3, -0.25, 506, 3, -0.25
*EQUATION
3
1753, 1, 1.0, 506, 1, -0.5, 554, 1, -0.5
*EQUATION
3
1753, 2, 1.0, 506, 2, -0.5, 554, 2, -0.5
*EQUATION
3
1753, 3, 1.0, 506, 3, -0.5, 554, 3, -0.5
*EQUATION
5
1754, 1, 1.0, 506, 1, -0.25, 554, 1, -0.25, 555, 1, -0.25, 507, 1, -0.25
*EQUATION
5
1754, 2, 1.0, 506, 2, -0.25, 554, 2, -0.25, 555, 2, -0.25, 507, 2, -0.25
*EQUATION
5
1754, 3, 1.0, 506, 3, -0.25, 554, 3, -0.25, 555, 3, -0.25, 507, 3, -0.25
*EQUATION
3
1755, 1, 1.0, 507, 1, -0.5, 555, 1, -0.5
*EQUATION
3
1755, 2, 1.0, 507, 2, -0.5, 555, 2, -0.5
*EQUATION
3
1755, 3, 1.0, 507, 3, -0.5, 555, 3, -0.5
*EQUATION
3
1756, 1, 1.0, 550, 1, -0.5, 554, 1, -0.5
*EQUATION
3
1756, 2, 1.0, 550, 2, -0.5, 554, 2, -0.5
*EQUATION
3
1756, 3, 1.0, 550, 3, -0.5, 554, 3, -0.5
*EQUATION
3
1759, 1, 1.0, 554, 1, -0.5, 555, 1, -0.5
*EQUATION
3
1759, 2, 1.0, 554, 2, -0.5, 555, 2, -0.5
*EQUATION
3
1759, 3, 1.0, 554, 3, -0.5, 555, 3, -0.5
*EQUATION
3
1760, 1, 1.0, 509, 1, -0.5, 510, 1, -0.5
*EQUATION
3
1760, 2, 1.0, 509, 2, -0.5, 510, 2, -0.5
*EQUATION
3
1760, 3, 1.0, 509, 3, -0.5, 510, 3, -0.5
*EQUATION
3
1761, 1, 1.0, 509, 1, -0.5, 511, 1, -0.5
*EQUATION
3
1761, 2, 1.0, 509, 2, -0.5, 511, 2, -0.5
*EQUATION
3
1761, 3, 1.0, 509, 3, -0.5, 511, 3, -0.5
*EQUATION
5
1762, 1, 1.0, 509, 1, -0.25, 511, 1, -0.25, 512, 1, -0.25, 510, 1, -0.25
*EQUATION
5
1762, 2, 1.0, 509, 2, -0.25, 511, 2, -0.25, 512, 2, -0.25, 510, 2, -0.25
*EQUATION
5
1762, 3, 1.0, 509, 3, -0.25, 511, 3, -0.25, 512, 3, -0.25, 510, 3, -0.25
*EQUATION
3
1763, 1, 1.0, 510, 1, -0.5, 512, 1, -0.5
*EQUATION
3
1763, 2, 1.0, 510, 2, -0.5, 512, 2, -0.5
*EQUATION
3
1763, 3, 1.0, 510, 3, -0.5, 512, 3, -0.5
*EQUATION
3
1764, 1, 1.0, 511, 1, -0.5, 512, 1, -0.5
*EQUATION
3
1764, 2, 1.0, 511, 2, -0.5, 512, 2, -0.5
*EQUATION
3
1764, 3, 1.0, 511, 3, -0.5, 512, 3, -0.5
*EQUATION
3
1765, 1, 1.0, 509, 1, -0.5, 557, 1, -0.5
*EQUATION
3
1765, 2, 1.0, 509, 2, -0.5, 557, 2, -0.5
*EQUATION
3
1765, 3, 1.0, 509, 3, -0.5, 557, 3, -0.5
*EQUATION
5
1766, 1, 1.0, 509, 1, -0.25, 557, 1, -0.25, 558, 1, -0.25, 510, 1, -0.25
*EQUATION
5
1766, 2, 1.0, 509, 2, -0.25, 557, 2, -0.25, 558, 2, -0.25, 510, 2, -0.25
*EQUATION
5
1766, 3, 1.0, 509, 3, -0.25, 557, 3, -0.25, 558, 3, -0.25, 510, 3, -0.25
*EQUATION
3
1767, 1, 1.0, 510, 1, -0.5, 558, 1, -0.5
*EQUATION
3
1767, 2, 1.0, 510, 2, -0.5, 558, 2, -0.5
*EQUATION
3
1767, 3, 1.0, 510, 3, -0.5, 558, 3, -0.5
*EQUATION
5
1768, 1, 1.0, 509, 1, -0.25, 557, 1, -0.25, 559, 1, -0.25, 511, 1, -0.25
*EQUATION
5
1768, 2, 1.0, 509, 2, -0.25, 557, 2, -0.25, 559, 2, -0.25, 511, 2, -0.25
*EQUATION
5
1768, 3, 1.0, 509, 3, -0.25, 557, 3, -0.25, 559, 3, -0.25, 511, 3, -0.25
*EQUATION
3
1771, 1, 1.0, 511, 1, -0.5, 559, 1, -0.5
*EQUATION
3
1771, 2, 1.0, 511, 2, -0.5, 559, 2, -0.5
*EQUATION
3
1771, 3, 1.0, 511, 3, -0.5, 559, 3, -0.5
*EQUATION
5
1772, 1, 1.0, 511, 1, -0.25, 559, 1, -0.25, 560, 1, -0.25, 512, 1, -0.25
*EQUATION
5
1772, 2, 1.0, 511, 2, -0.25, 559, 2, -0.25, 560, 2, -0.25, 512, 2, -0.25
*EQUATION
5
1772, 3, 1.0, 511, 3, -0.25, 559, 3, -0.25, 560, 3, -0.25, 512, 3, -0.25
*EQUATION
3
1773, 1, 1.0, 512, 1, -0.5, 560, 1, -0.5
*EQUATION
3
1773, 2, 1.0, 512, 2, -0.5, 560, 2, -0.5
*EQUATION
3
1773, 3, 1.0, 512, 3, -0.5, 560, 3, -0.5
*EQUATION
3
1774, 1, 1.0, 557, 1, -0.5, 558, 1, -0.5
*EQUATION
3
1774, 2, 1.0, 557, 2, -0.5, 558, 2, -0.5
*EQUATION
3
1774, 3, 1.0, 557, 3, -0.5, 558, 3, -0.5
*EQUATION
3
1775, 1, 1.0, 557, 1, -0.5, 559, 1, -0.5
*EQUATION
3
1775, 2, 1.0, 557, 2, -0.5, 559, 2, -0.5
*EQUATION
3
1775, 3, 1.0, 557, 3, -0.5, 559, 3, -0.5
*EQUATION
3
1778, 1, 1.0, 559, 1, -0.5, 560, 1, -0.5
*EQUATION
3
1778, 2, 1.0, 559, 2, -0.5, 560, 2, -0.5
*EQUATION
3
1778, 3, 1.0, 559, 3, -0.5, 560, 3, -0.5
*EQUATION
3
1779, 1, 1.0, 515, 1, -0.5, 516, 1, -0.5
*EQUATION
3
1779, 2, 1.0, 515, 2, -0.5, 516, 2, -0.5
*EQUATION
3
1779, 3, 1.0, 515, 3, -0.5, 516, 3, -0.5
*EQUATION
3
1780, 1, 1.0, 515, 1, -0.5, 518, 1, -0.5
*EQUATION
3
1780, 2, 1.0, 515, 2, -0.5, 518, 2, -0.5
*EQUATION
3
1780, 3, 1.0, 515, 3, -0.5, 518, 3, -0.5
*EQUATION
5
1781, 1, 1.0, 515, 1, -0.25, 518, 1, -0.25, 519, 1, -0.25, 516, 1, -0.25
*EQUATION
5
1781, 2, 1.0, 515, 2, -0.25, 518, 2, -0.25, 519, 2, -0.25, 516, 2, -0.25
*EQUATION
5
1781, 3, 1.0, 515, 3, -0.25, 518, 3, -0.25, 519, 3, -0.25, 516, 3, -0.25
*EQUATION
3
1782, 1, 1.0, 516, 1, -0.5, 519, 1, -0.5
*EQUATION
3
1782, 2, 1.0, 516, 2, -0.5, 519, 2, -0.5
*EQUATION
3
1782, 3, 1.0, 516, 3, -0.5, 519, 3, -0.5
*EQUATION
3
1783, 1, 1.0, 518, 1, -0.5, 519, 1, -0.5
*EQUATION
3
1783, 2, 1.0, 518, 2, -0.5, 519, 2, -0.5
*EQUATION
3
1783, 3, 1.0, 518, 3, -0.5, 519, 3, -0.5
*EQUATION
3
1784, 1, 1.0, 515, 1, -0.5, 563, 1, -0.5
*EQUATION
3
1784, 2, 1.0, 515, 2, -0.5, 563, 2, -0.5
*EQUATION
3
1784, 3, 1.0, 515, 3, -0.5, 563, 3, -0.5
*EQUATION
5
1785, 1, 1.0, 515, 1, -0.25, 563, 1, -0.25, 564, 1, -0.25, 516, 1, -0.25
*EQUATION
5
1785, 2, 1.0, 515, 2, -0.25, 563, 2, -0.25, 564, 2, -0.25, 516, 2, -0.25
*EQUATION
5
1785, 3, 1.0, 515, 3, -0.25, 563, 3, -0.25, 564, 3, -0.25, 516, 3, -0.25
*EQUATION
3
1786, 1, 1.0, 516, 1, -0.5, 564, 1, -0.5
*EQUATION
3
1786, 2, 1.0, 516, 2, -0.5, 564, 2, -0.5
*EQUATION
3
1786, 3, 1.0, 516, 3, -0.5, 564, 3, -0.5
*EQUATION
5
1787, 1, 1.0, 515, 1, -0.25, 563, 1, -0.25, 566, 1, -0.25, 518, 1, -0.25
*EQUATION
5
1787, 2, 1.0, 515, 2, -0.25, 563, 2, -0.25, 566, 2, -0.25, 518, 2, -0.25
*EQUATION
5
1787, 3, 1.0, 515, 3, -0.25, 563, 3, -0.25, 566, 3, -0.25, 518, 3, -0.25
*EQUATION
3
1790, 1, 1.0, 518, 1, -0.5, 566, 1, -0.5
*EQUATION
3
1790, 2, 1.0, 518, 2, -0.5, 566, 2, -0.5
*EQUATION
3
1790, 3, 1.0, 518, 3, -0.5, 566, 3, -0.5
*EQUATION
5
1791, 1, 1.0, 518, 1, -0.25, 566, 1, -0.25, 567, 1, -0.25, 519, 1, -0.25
*EQUATION
5
1791, 2, 1.0, 518, 2, -0.25, 566, 2, -0.25, 567, 2, -0.25, 519, 2, -0.25
*EQUATION
5
1791, 3, 1.0, 518, 3, -0.25, 566, 3, -0.25, 567, 3, -0.25, 519, 3, -0.25
*EQUATION
3
1792, 1, 1.0, 519, 1, -0.5, 567, 1, -0.5
*EQUATION
3
1792, 2, 1.0, 519, 2, -0.5, 567, 2, -0.5
*EQUATION
3
1792, 3, 1.0, 519, 3, -0.5, 567, 3, -0.5
*EQUATION
3
1793, 1, 1.0, 563, 1, -0.5, 564, 1, -0.5
*EQUATION
3
1793, 2, 1.0, 563, 2, -0.5, 564, 2, -0.5
*EQUATION
3
1793, 3, 1.0, 563, 3, -0.5, 564, 3, -0.5
*EQUATION
3
1794, 1, 1.0, 563, 1, -0.5, 566, 1, -0.5
*EQUATION
3
1794, 2, 1.0, 563, 2, -0.5, 566, 2, -0.5
*EQUATION
3
1794, 3, 1.0, 563, 3, -0.5, 566, 3, -0.5
*EQUATION
3
1797, 1, 1.0, 566, 1, -0.5, 567, 1, -0.5
*EQUATION
3
1797, 2, 1.0, 566, 2, -0.5, 567, 2, -0.5
*EQUATION
3
1797, 3, 1.0, 566, 3, -0.5, 567, 3, -0.5
*EQUATION
3
1798, 1, 1.0, 521, 1, -0.5, 522, 1, -0.5
*EQUATION
3
1798, 2, 1.0, 521, 2, -0.5, 522, 2, -0.5
*EQUATION
3
1798, 3, 1.0, 521, 3, -0.5, 522, 3, -0.5
*EQUATION
3
1799, 1, 1.0, 521, 1, -0.5, 524, 1, -0.5
*EQUATION
3
1799, 2, 1.0, 521, 2, -0.5, 524, 2, -0.5
*EQUATION
3
1799, 3, 1.0, 521, 3, -0.5, 524, 3, -0.5
*EQUATION
5
1800, 1, 1.0, 521, 1, -0.25, 524, 1, -0.25, 525, 1, -0.25, 522, 1, -0.25
*EQUATION
5
1800, 2, 1.0, 521, 2, -0.25, 524, 2, -0.25, 525, 2, -0.25, 522, 2, -0.25
*EQUATION
5
1800, 3, 1.0, 521, 3, -0.25, 524, 3, -0.25, 525, 3, -0.25, 522, 3, -0.25
*EQUATION
3
1801, 1, 1.0, 522, 1, -0.5, 525, 1, -0.5
*EQUATION
3
1801, 2, 1.0, 522, 2, -0.5, 525, 2, -0.5
*EQUATION
3
1801, 3, 1.0, 522, 3, -0.5, 525, 3, -0.5
*EQUATION
3
1802, 1, 1.0, 521, 1, -0.5, 569, 1, -0.5
*EQUATION
3
1802, 2, 1.0, 521, 2, -0.5, 569, 2, -0.5
*EQUATION
3
1802, 3, 1.0, 521, 3, -0.5, 569, 3, -0.5
*EQUATION
5
1803, 1, 1.0, 521, 1, -0.25, 569, 1, -0.25, 570, 1, -0.25, 522, 1, -0.25
*EQUATION
5
1803, 2, 1.0, 521, 2, -0.25, 569, 2, -0.25, 570, 2, -0.25, 522, 2, -0.25
*EQUATION
5
1803, 3, 1.0, 521, 3, -0.25, 569, 3, -0.25, 570, 3, -0.25, 522, 3, -0.25
*EQUATION
3
1804, 1, 1.0, 522, 1, -0.5, 570, 1, -0.5
*EQUATION
3
1804, 2, 1.0, 522, 2, -0.5, 570, 2, -0.5
*EQUATION
3
1804, 3, 1.0, 522, 3, -0.5, 570, 3, -0.5
*EQUATION
5
1805, 1, 1.0, 521, 1, -0.25, 569, 1, -0.25, 572, 1, -0.25, 524, 1, -0.25
*EQUATION
5
1805, 2, 1.0, 521, 2, -0.25, 569, 2, -0.25, 572, 2, -0.25, 524, 2, -0.25
*EQUATION
5
1805, 3, 1.0, 521, 3, -0.25, 569, 3, -0.25, 572, 3, -0.25, 524, 3, -0.25
*EQUATION
3
1808, 1, 1.0, 569, 1, -0.5, 570, 1, -0.5
*EQUATION
3
1808, 2, 1.0, 569, 2, -0.5, 570, 2, -0.5
*EQUATION
3
1808, 3, 1.0, 569, 3, -0.5, 570, 3, -0.5
*EQUATION
3
1809, 1, 1.0, 569, 1, -0.5, 572, 1, -0.5
*EQUATION
3
1809, 2, 1.0, 569, 2, -0.5, 572, 2, -0.5
*EQUATION
3
1809, 3, 1.0, 569, 3, -0.5, 572, 3, -0.5
*EQUATION
3
1812, 1, 1.0, 548, 1, -0.5, 553, 1, -0.5
*EQUATION
3
1812, 2, 1.0, 548, 2, -0.5, 553, 2, -0.5
*EQUATION
3
1812, 3, 1.0, 548, 3, -0.5, 553, 3, -0.5
*EQUATION
5
1813, 1, 1.0, 548, 1, -0.25, 553, 1, -0.25, 554, 1, -0.25, 550, 1, -0.25
*EQUATION
5
1813, 2, 1.0, 548, 2, -0.25, 553, 2, -0.25, 554, 2, -0.25, 550, 2, -0.25
*EQUATION
5
1813, 3, 1.0, 548, 3, -0.25, 553, 3, -0.25, 554, 3, -0.25, 550, 3, -0.25
*EQUATION
3
1814, 1, 1.0, 553, 1, -0.5, 554, 1, -0.5
*EQUATION
3
1814, 2, 1.0, 553, 2, -0.5, 554, 2, -0.5
*EQUATION
3
1814, 3, 1.0, 553, 3, -0.5, 554, 3, -0.5
*EQUATION
3
1818, 1, 1.0, 553, 1, -0.5, 601, 1, -0.5
*EQUATION
3
1818, 2, 1.0, 553, 2, -0.5, 601, 2, -0.5
*EQUATION
3
1818, 3, 1.0, 553, 3, -0.5, 601, 3, -0.5
*EQUATION
5
1819, 1, 1.0, 553, 1, -0.25, 601, 1, -0.25, 602, 1, -0.25, 554, 1, -0.25
*EQUATION
5
1819, 2, 1.0, 553, 2, -0.25, 601, 2, -0.25, 602, 2, -0.25, 554, 2, -0.25
*EQUATION
5
1819, 3, 1.0, 553, 3, -0.25, 601, 3, -0.25, 602, 3, -0.25, 554, 3, -0.25
*EQUATION
3
1820, 1, 1.0, 554, 1, -0.5, 602, 1, -0.5
*EQUATION
3
1820, 2, 1.0, 554, 2, -0.5, 602, 2, -0.5
*EQUATION
3
1820, 3, 1.0, 554, 3, -0.5, 602, 3, -0.5
*EQUATION
3
1824, 1, 1.0, 601, 1, -0.5, 602, 1, -0.5
*EQUATION
3
1824, 2, 1.0, 601, 2, -0.5, 602, 2, -0.5
*EQUATION
3
1824, 3, 1.0, 601, 3, -0.5, 602, 3, -0.5
*EQUATION
5
1827, 1, 1.0, 554, 1, -0.25, 602, 1, -0.25, 603, 1, -0.25, 555, 1, -0.25
*EQUATION
5
1827, 2, 1.0, 554, 2, -0.25, 602, 2, -0.25, 603, 2, -0.25, 555, 2, -0.25
*EQUATION
5
1827, 3, 1.0, 554, 3, -0.25, 602, 3, -0.25, 603, 3, -0.25, 555, 3, -0.25
*EQUATION
3
1828, 1, 1.0, 555, 1, -0.5, 603, 1, -0.5
*EQUATION
3
1828, 2, 1.0, 555, 2, -0.5, 603, 2, -0.5
*EQUATION
3
1828, 3, 1.0, 555, 3, -0.5, 603, 3, -0.5
*EQUATION
3
1831, 1, 1.0, 602, 1, -0.5, 603, 1, -0.5
*EQUATION
3
1831, 2, 1.0, 602, 2, -0.5, 603, 2, -0.5
*EQUATION
3
1831, 3, 1.0, 602, 3, -0.5, 603, 3, -0.5
*EQUATION
3
1832, 1, 1.0, 557, 1, -0.5, 605, 1, -0.5
*EQUATION
3
1832, 2, 1.0, 557, 2, -0.5, 605, 2, -0.5
*EQUATION
3
1832, 3, 1.0, 557, 3, -0.5, 605, 3, -0.5
*EQUATION
5
1833, 1, 1.0, 557, 1, -0.25, 605, 1, -0.25, 606, 1, -0.25, 558, 1, -0.25
*EQUATION
5
1833, 2, 1.0, 557, 2, -0.25, 605, 2, -0.25, 606, 2, -0.25, 558, 2, -0.25
*EQUATION
5
1833, 3, 1.0, 557, 3, -0.25, 605, 3, -0.25, 606, 3, -0.25, 558, 3, -0.25
*EQUATION
3
1834, 1, 1.0, 558, 1, -0.5, 606, 1, -0.5
*EQUATION
3
1834, 2, 1.0, 558, 2, -0.5, 606, 2, -0.5
*EQUATION
3
1834, 3, 1.0, 558, 3, -0.5, 606, 3, -0.5
*EQUATION
5
1835, 1, 1.0, 557, 1, -0.25, 605, 1, -0.25, 607, 1, -0.25, 559, 1, -0.25
*EQUATION
5
1835, 2, 1.0, 557, 2, -0.25, 605, 2, -0.25, 607, 2, -0.25, 559, 2, -0.25
*EQUATION
5
1835, 3, 1.0, 557, 3, -0.25, 605, 3, -0.25, 607, 3, -0.25, 559, 3, -0.25
*EQUATION
3
1838, 1, 1.0, 559, 1, -0.5, 607, 1, -0.5
*EQUATION
3
1838, 2, 1.0, 559, 2, -0.5, 607, 2, -0.5
*EQUATION
3
1838, 3, 1.0, 559, 3, -0.5, 607, 3, -0.5
*EQUATION
5
1839, 1, 1.0, 559, 1, -0.25, 607, 1, -0.25, 608, 1, -0.25, 560, 1, -0.25
*EQUATION
5
1839, 2, 1.0, 559, 2, -0.25, 607, 2, -0.25, 608, 2, -0.25, 560, 2, -0.25
*EQUATION
5
1839, 3, 1.0, 559, 3, -0.25, 607, 3, -0.25, 608, 3, -0.25, 560, 3, -0.25
*EQUATION
3
1840, 1, 1.0, 560, 1, -0.5, 608, 1, -0.5
*EQUATION
3
1840, 2, 1.0, 560, 2, -0.5, 608, 2, -0.5
*EQUATION
3
1840, 3, 1.0, 560, 3, -0.5, 608, 3, -0.5
*EQUATION
3
1841, 1, 1.0, 605, 1, -0.5, 606, 1, -0.5
*EQUATION
3
1841, 2, 1.0, 605, 2, -0.5, 606, 2, -0.5
*EQUATION
3
1841, 3, 1.0, 605, 3, -0.5, 606, 3, -0.5
*EQUATION
3
1842, 1, 1.0, 605, 1, -0.5, 607, 1, -0.5
*EQUATION
3
1842, 2, 1.0, 605, 2, -0.5, 607, 2, -0.5
*EQUATION
3
1842, 3, 1.0, 605, 3, -0.5, 607, 3, -0.5
*EQUATION
3
1845, 1, 1.0, 607, 1, -0.5, 608, 1, -0.5
*EQUATION
3
1845, 2, 1.0, 607, 2, -0.5, 608, 2, -0.5
*EQUATION
3
1845, 3, 1.0, 607, 3, -0.5, 608, 3, -0.5
*EQUATION
3
1846, 1, 1.0, 563, 1, -0.5, 611, 1, -0.5
*EQUATION
3
1846, 2, 1.0, 563, 2, -0.5, 611, 2, -0.5
*EQUATION
3
1846, 3, 1.0, 563, 3, -0.5, 611, 3, -0.5
*EQUATION
5
1847, 1, 1.0, 563, 1, -0.25, 611, 1, -0.25, 612, 1, -0.25, 564, 1, -0.25
*EQUATION
5
1847, 2, 1.0, 563, 2, -0.25, 611, 2, -0.25, 612, 2, -0.25, 564, 2, -0.25
*EQUATION
5
1847, 3, 1.0, 563, 3, -0.25, 611, 3, -0.25, 612, 3, -0.25, 564, 3, -0.25
*EQUATION
3
1848, 1, 1.0, 564, 1, -0.5, 612, 1, -0.5
*EQUATION
3
1848, 2, 1.0, 564, 2, -0.5, 612, 2, -0.5
*EQUATION
3
1848, 3, 1.0, 564, 3, -0.5, 612, 3, -0.5
*EQUATION
5
1849, 1, 1.0, 563, 1, -0.25, 611, 1, -0.25, 614, 1, -0.25, 566, 1, -0.25
*EQUATION
5
1849, 2, 1.0, 563, 2, -0.25, 611, 2, -0.25, 614, 2, -0.25, 566, 2, -0.25
*EQUATION
5
1849, 3, 1.0, 563, 3, -0.25, 611, 3, -0.25, 614, 3, -0.25, 566, 3, -0.25
*EQUATION
3
1852, 1, 1.0, 566, 1, -0.5, 614, 1, -0.5
*EQUATION
3
1852, 2, 1.0, 566, 2, -0.5, 614, 2, -0.5
*EQUATION
3
1852, 3, 1.0, 566, 3, -0.5, 614, 3, -0.5
*EQUATION
5
1853, 1, 1.0, 566, 1, -0.25, 614, 1, -0.25, 615, 1, -0.25, 567, 1, -0.25
*EQUATION
5
1853, 2, 1.0, 566, 2, -0.25, 614, 2, -0.25, 615, 2, -0.25, 567, 2, -0.25
*EQUATION
5
1853, 3, 1.0, 566, 3, -0.25, 614, 3, -0.25, 615, 3, -0.25, 567, 3, -0.25
*EQUATION
3
1854, 1, 1.0, 567, 1, -0.5, 615, 1, -0.5
*EQUATION
3
1854, 2, 1.0, 567, 2, -0.5, 615, 2, -0.5
*EQUATION
3
1854, 3, 1.0, 567, 3, -0.5, 615, 3, -0.5
*EQUATION
3
1855, 1, 1.0, 611, 1, -0.5, 612, 1, -0.5
*EQUATION
3
1855, 2, 1.0, 611, 2, -0.5, 612, 2, -0.5
*EQUATION
3
1855, 3, 1.0, 611, 3, -0.5, 612, 3, -0.5
*EQUATION
3
1856, 1, 1.0, 611, 1, -0.5, 614, 1, -0.5
*EQUATION
3
1856, 2, 1.0, 611, 2, -0.5, 614, 2, -0.5
*EQUATION
3
1856, 3, 1.0, 611, 3, -0.5, 614, 3, -0.5
*EQUATION
3
1859, 1, 1.0, 614, 1, -0.5, 615, 1, -0.5
*EQUATION
3
1859, 2, 1.0, 614, 2, -0.5, 615, 2, -0.5
*EQUATION
3
1859, 3, 1.0, 614, 3, -0.5, 615, 3, -0.5
*EQUATION
3
1860, 1, 1.0, 568, 1, -0.5, 569, 1, -0.5
*EQUATION
3
1860, 2, 1.0, 568, 2, -0.5, 569, 2, -0.5
*EQUATION
3
1860, 3, 1.0, 568, 3, -0.5, 569, 3, -0.5
*EQUATION
3
1861, 1, 1.0, 568, 1, -0.5, 571, 1, -0.5
*EQUATION
3
1861, 2, 1.0, 568, 2, -0.5, 571, 2, -0.5
*EQUATION
3
1861, 3, 1.0, 568, 3, -0.5, 571, 3, -0.5
*EQUATION
5
1862, 1, 1.0, 568, 1, -0.25, 571, 1, -0.25, 572, 1, -0.25, 569, 1, -0.25
*EQUATION
5
1862, 2, 1.0, 568, 2, -0.25, 571, 2, -0.25, 572, 2, -0.25, 569, 2, -0.25
*EQUATION
5
1862, 3, 1.0, 568, 3, -0.25, 571, 3, -0.25, 572, 3, -0.25, 569, 3, -0.25
*EQUATION
3
1863, 1, 1.0, 568, 1, -0.5, 616, 1, -0.5
*EQUATION
3
1863, 2, 1.0, 568, 2, -0.5, 616, 2, -0.5
*EQUATION
3
1863, 3, 1.0, 568, 3, -0.5, 616, 3, -0.5
*EQUATION
5
1864, 1, 1.0, 568, 1, -0.25, 616, 1, -0.25, 617, 1, -0.25, 569, 1, -0.25
*EQUATION
5
1864, 2, 1.0, 568, 2, -0.25, 616, 2, -0.25, 617, 2, -0.25, 569, 2, -0.25
*EQUATION
5
1864, 3, 1.0, 568, 3, -0.25, 616, 3, -0.25, 617, 3, -0.25, 569, 3, -0.25
*EQUATION
3
1865, 1, 1.0, 569, 1, -0.5, 617, 1, -0.5
*EQUATION
3
1865, 2, 1.0, 569, 2, -0.5, 617, 2, -0.5
*EQUATION
3
1865, 3, 1.0, 569, 3, -0.5, 617, 3, -0.5
*EQUATION
3
1869, 1, 1.0, 616, 1, -0.5, 617, 1, -0.5
*EQUATION
3
1869, 2, 1.0, 616, 2, -0.5, 617, 2, -0.5
*EQUATION
3
1869, 3, 1.0, 616, 3, -0.5, 617, 3, -0.5
*EQUATION
5
1873, 1, 1.0, 569, 1, -0.25, 617, 1, -0.25, 618, 1, -0.25, 570, 1, -0.25
*EQUATION
5
1873, 2, 1.0, 569, 2, -0.25, 617, 2, -0.25, 618, 2, -0.25, 570, 2, -0.25
*EQUATION
5
1873, 3, 1.0, 569, 3, -0.25, 617, 3, -0.25, 618, 3, -0.25, 570, 3, -0.25
*EQUATION
3
1874, 1, 1.0, 570, 1, -0.5, 618, 1, -0.5
*EQUATION
3
1874, 2, 1.0, 570, 2, -0.5, 618, 2, -0.5
*EQUATION
3
1874, 3, 1.0, 570, 3, -0.5, 618, 3, -0.5
*EQUATION
3
1877, 1, 1.0, 617, 1, -0.5, 618, 1, -0.5
*EQUATION
3
1877, 2, 1.0, 617, 2, -0.5, 618, 2, -0.5
*EQUATION
3
1877, 3, 1.0, 617, 3, -0.5, 618, 3, -0.5
*EQUATION
3
1883, 1, 1.0, 601, 1, -0.5, 649, 1, -0.5
*EQUATION
3
1883, 2, 1.0, 601, 2, -0.5, 649, 2, -0.5
*EQUATION
3
1883, 3, 1.0, 601, 3, -0.5, 649, 3, -0.5
*EQUATION
5
1884, 1, 1.0, 601, 1, -0.25, 649, 1, -0.25, 650, 1, -0.25, 602, 1, -0.25
*EQUATION
5
1884, 2, 1.0, 601, 2, -0.25, 649, 2, -0.25, 650, 2, -0.25, 602, 2, -0.25
*EQUATION
5
1884, 3, 1.0, 601, 3, -0.25, 649, 3, -0.25, 650, 3, -0.25, 602, 3, -0.25
*EQUATION
3
1885, 1, 1.0, 602, 1, -0.5, 650, 1, -0.5
*EQUATION
3
1885, 2, 1.0, 602, 2, -0.5, 650, 2, -0.5
*EQUATION
3
1885, 3, 1.0, 602, 3, -0.5, 650, 3, -0.5
*EQUATION
3
1889, 1, 1.0, 649, 1, -0.5, 650, 1, -0.5
*EQUATION
3
1889, 2, 1.0, 649, 2, -0.5, 650, 2, -0.5
*EQUATION
3
1889, 3, 1.0, 649, 3, -0.5, 650, 3, -0.5
*EQUATION
5
1892, 1, 1.0, 602, 1, -0.25, 650, 1, -0.25, 651, 1, -0.25, 603, 1, -0.25
*EQUATION
5
1892, 2, 1.0, 602, 2, -0.25, 650, 2, -0.25, 651, 2, -0.25, 603, 2, -0.25
*EQUATION
5
1892, 3, 1.0, 602, 3, -0.25, 650, 3, -0.25, 651, 3, -0.25, 603, 3, -0.25
*EQUATION
3
1893, 1, 1.0, 603, 1, -0.5, 651, 1, -0.5
*EQUATION
3
1893, 2, 1.0, 603, 2, -0.5, 651, 2, -0.5
*EQUATION
3
1893, 3, 1.0, 603, 3, -0.5, 651, 3, -0.5
*EQUATION
3
1896, 1, 1.0, 650, 1, -0.5, 651, 1, -0.5
*EQUATION
3
1896, 2, 1.0, 650, 2, -0.5, 651, 2, -0.5
*EQUATION
3
1896, 3, 1.0, 650, 3, -0.5, 651, 3, -0.5
*EQUATION
3
1897, 1, 1.0, 605, 1, -0.5, 653, 1, -0.5
*EQUATION
3
1897, 2, 1.0, 605, 2, -0.5, 653, 2, -0.5
*EQUATION
3
1897, 3, 1.0, 605, 3, -0.5, 653, 3, -0.5
*EQUATION
5
1898, 1, 1.0, 605, 1, -0.25, 653, 1, -0.25, 654, 1, -0.25, 606, 1, -0.25
*EQUATION
5
1898, 2, 1.0, 605, 2, -0.25, 653, 2, -0.25, 654, 2, -0.25, 606, 2, -0.25
*EQUATION
5
1898, 3, 1.0, 605, 3, -0.25, 653, 3, -0.25, 654, 3, -0.25, 606, 3, -0.25
*EQUATION
3
1899, 1, 1.0, 606, 1, -0.5, 654, 1, -0.5
*EQUATION
3
1899, 2, 1.0, 606, 2, -0.5, 654, 2, -0.5
*EQUATION
3
1899, 3, 1.0, 606, 3, -0.5, 654, 3, -0.5
*EQUATION
5
1900, 1, 1.0, 605, 1, -0.25, 653, 1, -0.25, 655, 1, -0.25, 607, 1, -0.25
*EQUATION
5
1900, 2, 1.0, 605, 2, -0.25, 653, 2, -0.25, 655, 2, -0.25, 607, 2, -0.25
*EQUATION
5
1900, 3, 1.0, 605, 3, -0.25, 653, 3, -0.25, 655, 3, -0.25, 607, 3, -0.25
*EQUATION
3
1903, 1, 1.0, 607, 1, -0.5, 655, 1, -0.5
*EQUATION
3
1903, 2, 1.0, 607, 2, -0.5, 655, 2, -0.5
*EQUATION
3
1903, 3, 1.0, 607, 3, -0.5, 655, 3, -0.5
*EQUATION
5
1904, 1, 1.0, 607, 1, -0.25, 655, 1, -0.25, 656, 1, -0.25, 608, 1, -0.25
*EQUATION
5
1904, 2, 1.0, 607, 2, -0.25, 655, 2, -0.25, 656, 2, -0.25, 608, 2, -0.25
*EQUATION
5
1904, 3, 1.0, 607, 3, -0.25, 655, 3, -0.25, 656, 3, -0.25, 608, 3, -0.25
*EQUATION
3
1905, 1, 1.0, 608, 1, -0.5, 656, 1, -0.5
*EQUATION
3
1905, 2, 1.0, 608, 2, -0.5, 656, 2, -0.5
*EQUATION
3
1905, 3, 1.0, 608, 3, -0.5, 656, 3, -0.5
*EQUATION
3
1906, 1, 1.0, 653, 1, -0.5, 654, 1, -0.5
*EQUATION
3
1906, 2, 1.0, 653, 2, -0.5, 654, 2, -0.5
*EQUATION
3
1906, 3, 1.0, 653, 3, -0.5, 654, 3, -0.5
*EQUATION
3
1907, 1, 1.0, 653, 1, -0.5, 655, 1, -0.5
*EQUATION
3
1907, 2, 1.0, 653, 2, -0.5, 655, 2, -0.5
*EQUATION
3
1907, 3, 1.0, 653, 3, -0.5, 655, 3, -0.5
*EQUATION
3
1910, 1, 1.0, 655, 1, -0.5, 656, 1, -0.5
*EQUATION
3
1910, 2, 1.0, 655, 2, -0.5, 656, 2, -0.5
*EQUATION
3
1910, 3, 1.0, 655, 3, -0.5, 656, 3, -0.5
*EQUATION
3
1911, 1, 1.0, 611, 1, -0.5, 659, 1, -0.5
*EQUATION
3
1911, 2, 1.0, 611, 2, -0.5, 659, 2, -0.5
*EQUATION
3
1911, 3, 1.0, 611, 3, -0.5, 659, 3, -0.5
*EQUATION
5
1912, 1, 1.0, 611, 1, -0.25, 659, 1, -0.25, 660, 1, -0.25, 612, 1, -0.25
*EQUATION
5
1912, 2, 1.0, 611, 2, -0.25, 659, 2, -0.25, 660, 2, -0.25, 612, 2, -0.25
*EQUATION
5
1912, 3, 1.0, 611, 3, -0.25, 659, 3, -0.25, 660, 3, -0.25, 612, 3, -0.25
*EQUATION
3
1913, 1, 1.0, 612, 1, -0.5, 660, 1, -0.5
*EQUATION
3
1913, 2, 1.0, 612, 2, -0.5, 660, 2, -0.5
*EQUATION
3
1913, 3, 1.0, 612, 3, -0.5, 660, 3, -0.5
*EQUATION
5
1914, 1, 1.0, 611, 1, -0.25, 659, 1, -0.25, 662, 1, -0.25, 614, 1, -0.25
*EQUATION
5
1914, 2, 1.0, 611, 2, -0.25, 659, 2, -0.25, 662, 2, -0.25, 614, 2, -0.25
*EQUATION
5
1914, 3, 1.0, 611, 3, -0.25, 659, 3, -0.25, 662, 3, -0.25, 614, 3, -0.25
*EQUATION
3
1917, 1, 1.0, 614, 1, -0.5, 662, 1, -0.5
*EQUATION
3
1917, 2, 1.0, 614, 2, -0.5, 662, 2, -0.5
*EQUATION
3
1917, 3, 1.0, 614, 3, -0.5, 662, 3, -0.5
*EQUATION
5
1918, 1, 1.0, 614, 1, -0.25, 662, 1, -0.25, 663, 1, -0.25, 615, 1, -0.25
*EQUATION
5
1918, 2, 1.0, 614, 2, -0.25, 662, 2, -0.25, 663, 2, -0.25, 615, 2, -0.25
*EQUATION
5
1918, 3, 1.0, 614, 3, -0.25, 662, 3, -0.25, 663, 3, -0.25, 615, 3, -0.25
*EQUATION
3
1919, 1, 1.0, 615, 1, -0.5, 663, 1, -0.5
*EQUATION
3
1919, 2, 1.0, 615, 2, -0.5, 663, 2, -0.5
*EQUATION
3
1919, 3, 1.0, 615, 3, -0.5, 663, 3, -0.5
*EQUATION
3
1920, 1, 1.0, 659, 1, -0.5, 660, 1, -0.5
*EQUATION
3
1920, 2, 1.0, 659, 2, -0.5, 660, 2, -0.5
*EQUATION
3
1920, 3, 1.0, 659, 3, -0.5, 660, 3, -0.5
*EQUATION
3
1921, 1, 1.0, 659, 1, -0.5, 662, 1, -0.5
*EQUATION
3
1921, 2, 1.0, 659, 2, -0.5, 662, 2, -0.5
*EQUATION
3
1921, 3, 1.0, 659, 3, -0.5, 662, 3, -0.5
*EQUATION
3
1924, 1, 1.0, 662, 1, -0.5, 663, 1, -0.5
*EQUATION
3
1924, 2, 1.0, 662, 2, -0.5, 663, 2, -0.5
*EQUATION
3
1924, 3, 1.0, 662, 3, -0.5, 663, 3, -0.5
*EQUATION
3
1925, 1, 1.0, 616, 1, -0.5, 664, 1, -0.5
*EQUATION
3
1925, 2, 1.0, 616, 2, -0.5, 664, 2, -0.5
*EQUATION
3
1925, 3, 1.0, 616, 3, -0.5, 664, 3, -0.5
*EQUATION
5
1926, 1, 1.0, 616, 1, -0.25, 664, 1, -0.25, 665, 1, -0.25, 617, 1, -0.25
*EQUATION
5
1926, 2, 1.0, 616, 2, -0.25, 664, 2, -0.25, 665, 2, -0.25, 617, 2, -0.25
*EQUATION
5
1926, 3, 1.0, 616, 3, -0.25, 664, 3, -0.25, 665, 3, -0.25, 617, 3, -0.25
*EQUATION
3
1927, 1, 1.0, 617, 1, -0.5, 665, 1, -0.5
*EQUATION
3
1927, 2, 1.0, 617, 2, -0.5, 665, 2, -0.5
*EQUATION
3
1927, 3, 1.0, 617, 3, -0.5, 665, 3, -0.5
*EQUATION
3
1931, 1, 1.0, 664, 1, -0.5, 665, 1, -0.5
*EQUATION
3
1931, 2, 1.0, 664, 2, -0.5, 665, 2, -0.5
*EQUATION
3
1931, 3, 1.0, 664, 3, -0.5, 665, 3, -0.5
*EQUATION
5
1935, 1, 1.0, 617, 1, -0.25, 665, 1, -0.25, 666, 1, -0.25, 618, 1, -0.25
*EQUATION
5
1935, 2, 1.0, 617, 2, -0.25, 665, 2, -0.25, 666, 2, -0.25, 618, 2, -0.25
*EQUATION
5
1935, 3, 1.0, 617, 3, -0.25, 665, 3, -0.25, 666, 3, -0.25, 618, 3, -0.25
*EQUATION
3
1936, 1, 1.0, 618, 1, -0.5, 666, 1, -0.5
*EQUATION
3
1936, 2, 1.0, 618, 2, -0.5, 666, 2, -0.5
*EQUATION
3
1936, 3, 1.0, 618, 3, -0.5, 666, 3, -0.5
*EQUATION
3
1939, 1, 1.0, 665, 1, -0.5, 666, 1, -0.5
*EQUATION
3
1939, 2, 1.0, 665, 2, -0.5, 666, 2, -0.5
*EQUATION
3
1939, 3, 1.0, 665, 3, -0.5, 666, 3, -0.5
*EQUATION
3
1945, 1, 1.0, 649, 1, -0.5, 697, 1, -0.5
*EQUATION
3
1945, 2, 1.0, 649, 2, -0.5, 697, 2, -0.5
*EQUATION
3
1945, 3, 1.0, 649, 3, -0.5, 697, 3, -0.5
*EQUATION
5
1946, 1, 1.0, 649, 1, -0.25, 697, 1, -0.25, 698, 1, -0.25, 650, 1, -0.25
*EQUATION
5
1946, 2, 1.0, 649, 2, -0.25, 697, 2, -0.25, 698, 2, -0.25, 650, 2, -0.25
*EQUATION
5
1946, 3, 1.0, 649, 3, -0.25, 697, 3, -0.25, 698, 3, -0.25, 650, 3, -0.25
*EQUATION
3
1947, 1, 1.0, 650, 1, -0.5, 698, 1, -0.5
*EQUATION
3
1947, 2, 1.0, 650, 2, -0.5, 698, 2, -0.5
*EQUATION
3
1947, 3, 1.0, 650, 3, -0.5, 698, 3, -0.5
*EQUATION
3
1951, 1, 1.0, 697, 1, -0.5, 698, 1, -0.5
*EQUATION
3
1951, 2, 1.0, 697, 2, -0.5, 698, 2, -0.5
*EQUATION
3
1951, 3, 1.0, 697, 3, -0.5, 698, 3, -0.5
*EQUATION
5
1954, 1, 1.0, 650, 1, -0.25, 698, 1, -0.25, 699, 1, -0.25, 651, 1, -0.25
*EQUATION
5
1954, 2, 1.0, 650, 2, -0.25, 698, 2, -0.25, 699, 2, -0.25, 651, 2, -0.25
*EQUATION
5
1954, 3, 1.0, 650, 3, -0.25, 698, 3, -0.25, 699, 3, -0.25, 651, 3, -0.25
*EQUATION
3
1955, 1, 1.0, 651, 1, -0.5, 699, 1, -0.5
*EQUATION
3
1955, 2, 1.0, 651, 2, -0.5, 699, 2, -0.5
*EQUATION
3
1955, 3, 1.0, 651, 3, -0.5, 699, 3, -0.5
*EQUATION
3
1958, 1, 1.0, 698, 1, -0.5, 699, 1, -0.5
*EQUATION
3
1958, 2, 1.0, 698, 2, -0.5, 699, 2, -0.5
*EQUATION
3
1958, 3, 1.0, 698, 3, -0.5, 699, 3, -0.5
*EQUATION
3
1959, 1, 1.0, 653, 1, -0.5, 701, 1, -0.5
*EQUATION
3
1959, 2, 1.0, 653, 2, -0.5, 701, 2, -0.5
*EQUATION
3
1959, 3, 1.0, 653, 3, -0.5, 701, 3, -0.5
*EQUATION
5
1960, 1, 1.0, 653, 1, -0.25, 701, 1, -0.25, 702, 1, -0.25, 654, 1, -0.25
*EQUATION
5
1960, 2, 1.0, 653, 2, -0.25, 701, 2, -0.25, 702, 2, -0.25, 654, 2, -0.25
*EQUATION
5
1960, 3, 1.0, 653, 3, -0.25, 701, 3, -0.25, 702, 3, -0.25, 654, 3, -0.25
*EQUATION
3
1961, 1, 1.0, 654, 1, -0.5, 702, 1, -0.5
*EQUATION
3
1961, 2, 1.0, 654, 2, -0.5, 702, 2, -0.5
*EQUATION
3
1961, 3, 1.0, 654, 3, -0.5, 702, 3, -0.5
*EQUATION
5
1962, 1, 1.0, 653, 1, -0.25, 701, 1, -0.25, 703, 1, -0.25, 655, 1, -0.25
*EQUATION
5
1962, 2, 1.0, 653, 2, -0.25, 701, 2, -0.25, 703, 2, -0.25, 655, 2, -0.25
*EQUATION
5
1962, 3, 1.0, 653, 3, -0.25, 701, 3, -0.25, 703, 3, -0.25, 655, 3, -0.25
*EQUATION
3
1965, 1, 1.0, 655, 1, -0.5, 703, 1, -0.5
*EQUATION
3
1965, 2, 1.0, 655, 2, -0.5, 703, 2, -0.5
*EQUATION
3
1965, 3, 1.0, 655, 3, -0.5, 703, 3, -0.5
*EQUATION
5
1966, 1, 1.0, 655, 1, -0.25, 703, 1, -0.25, 704, 1, -0.25, 656, 1, -0.25
*EQUATION
5
1966, 2, 1.0, 655, 2, -0.25, 703, 2, -0.25, 704, 2, -0.25, 656, 2, -0.25
*EQUATION
5
1966, 3, 1.0, 655, 3, -0.25, 703, 3, -0.25, 704, 3, -0.25, 656, 3, -0.25
*EQUATION
3
1967, 1, 1.0, 656, 1, -0.5, 704, 1, -0.5
*EQUATION
3
1967, 2, 1.0, 656, 2, -0.5, 704, 2, -0.5
*EQUATION
3
1967, 3, 1.0, 656, 3, -0.5, 704, 3, -0.5
*EQUATION
3
1968, 1, 1.0, 701, 1, -0.5, 702, 1, -0.5
*EQUATION
3
1968, 2, 1.0, 701, 2, -0.5, 702, 2, -0.5
*EQUATION
3
1968, 3, 1.0, 701, 3, -0.5, 702, 3, -0.5
*EQUATION
3
1969, 1, 1.0, 701, 1, -0.5, 703, 1, -0.5
*EQUATION
3
1969, 2, 1.0, 701, 2, -0.5, 703, 2, -0.5
*EQUATION
3
1969, 3, 1.0, 701, 3, -0.5, 703, 3, -0.5
*EQUATION
3
1972, 1, 1.0, 703, 1, -0.5, 704, 1, -0.5
*EQUATION
3
1972, 2, 1.0, 703, 2, -0.5, 704, 2, -0.5
*EQUATION
3
1972, 3, 1.0, 703, 3, -0.5, 704, 3, -0.5
*EQUATION
3
1973, 1, 1.0, 659, 1, -0.5, 707, 1, -0.5
*EQUATION
3
1973, 2, 1.0, 659, 2, -0.5, 707, 2, -0.5
*EQUATION
3
1973, 3, 1.0, 659, 3, -0.5, 707, 3, -0.5
*EQUATION
5
1974, 1, 1.0, 659, 1, -0.25, 707, 1, -0.25, 708, 1, -0.25, 660, 1, -0.25
*EQUATION
5
1974, 2, 1.0, 659, 2, -0.25, 707, 2, -0.25, 708, 2, -0.25, 660, 2, -0.25
*EQUATION
5
1974, 3, 1.0, 659, 3, -0.25, 707, 3, -0.25, 708, 3, -0.25, 660, 3, -0.25
*EQUATION
3
1975, 1, 1.0, 660, 1, -0.5, 708, 1, -0.5
*EQUATION
3
1975, 2, 1.0, 660, 2, -0.5, 708, 2, -0.5
*EQUATION
3
1975, 3, 1.0, 660, 3, -0.5, 708, 3, -0.5
*EQUATION
5
1976, 1, 1.0, 659, 1, -0.25, 707, 1, -0.25, 710, 1, -0.25, 662, 1, -0.25
*EQUATION
5
1976, 2, 1.0, 659, 2, -0.25, 707, 2, -0.25, 710, 2, -0.25, 662, 2, -0.25
*EQUATION
5
1976, 3, 1.0, 659, 3, -0.25, 707, 3, -0.25, 710, 3, -0.25, 662, 3, -0.25
*EQUATION
3
1979, 1, 1.0, 662, 1, -0.5, 710, 1, -0.5
*EQUATION
3
1979, 2, 1.0, 662, 2, -0.5, 710, 2, -0.5
*EQUATION
3
1979, 3, 1.0, 662, 3, -0.5, 710, 3, -0.5
*EQUATION
5
1980, 1, 1.0, 662, 1, -0.25, 710, 1, -0.25, 711, 1, -0.25, 663, 1, -0.25
*EQUATION
5
1980, 2, 1.0, 662, 2, -0.25, 710, 2, -0.25, 711, 2, -0.25, 663, 2, -0.25
*EQUATION
5
1980, 3, 1.0, 662, 3, -0.25, 710, 3, -0.25, 711, 3, -0.25, 663, 3, -0.25
*EQUATION
3
1981, 1, 1.0, 663, 1, -0.5, 711, 1, -0.5
*EQUATION
3
1981, 2, 1.0, 663, 2, -0.5, 711, 2, -0.5
*EQUATION
3
1981, 3, 1.0, 663, 3, -0.5, 711, 3, -0.5
*EQUATION
3
1982, 1, 1.0, 707, 1, -0.5, 708, 1, -0.5
*EQUATION
3
1982, 2, 1.0, 707, 2, -0.5, 708, 2, -0.5
*EQUATION
3
1982, 3, 1.0, 707, 3, -0.5, 708, 3, -0.5
*EQUATION
3
1983, 1, 1.0, 707, 1, -0.5, 710, 1, -0.5
*EQUATION
3
1983, 2, 1.0, 707, 2, -0.5, 710, 2, -0.5
*EQUATION
3
1983, 3, 1.0, 707, 3, -0.5, 710, 3, -0.5
*EQUATION
3
1986, 1, 1.0, 710, 1, -0.5, 711, 1, -0.5
*EQUATION
3
1986, 2, 1.0, 710, 2, -0.5, 711, 2, -0.5
*EQUATION
3
1986, 3, 1.0, 710, 3, -0.5, 711, 3, -0.5
*EQUATION
3
1987, 1, 1.0, 664, 1, -0.5, 712, 1, -0.5
*EQUATION
3
1987, 2, 1.0, 664, 2, -0.5, 712, 2, -0.5
*EQUATION
3
1987, 3, 1.0, 664, 3, -0.5, 712, 3, -0.5
*EQUATION
5
1988, 1, 1.0, 664, 1, -0.25, 712, 1, -0.25, 713, 1, -0.25, 665, 1, -0.25
*EQUATION
5
1988, 2, 1.0, 664, 2, -0.25, 712, 2, -0.25, 713, 2, -0.25, 665, 2, -0.25
*EQUATION
5
1988, 3, 1.0, 664, 3, -0.25, 712, 3, -0.25, 713, 3, -0.25, 665, 3, -0.25
*EQUATION
3
1989, 1, 1.0, 665, 1, -0.5, 713, 1, -0.5
*EQUATION
3
1989, 2, 1.0, 665, 2, -0.5, 713, 2, -0.5
*EQUATION
3
1989, 3, 1.0, 665, 3, -0.5, 713, 3, -0.5
*EQUATION
3
1993, 1, 1.0, 712, 1, -0.5, 713, 1, -0.5
*EQUATION
3
1993, 2, 1.0, 712, 2, -0.5, 713, 2, -0.5
*EQUATION
3
1993, 3, 1.0, 712, 3, -0.5, 713, 3, -0.5
*EQUATION
5
1997, 1, 1.0, 665, 1, -0.25, 713, 1, -0.25, 714, 1, -0.25, 666, 1, -0.25
*EQUATION
5
1997, 2, 1.0, 665, 2, -0.25, 713, 2, -0.25, 714, 2, -0.25, 666, 2, -0.25
*EQUATION
5
1997, 3, 1.0, 665, 3, -0.25, 713, 3, -0.25, 714, 3, -0.25, 666, 3, -0.25
*EQUATION
3
1998, 1, 1.0, 666, 1, -0.5, 714, 1, -0.5
*EQUATION
3
1998, 2, 1.0, 666, 2, -0.5, 714, 2, -0.5
*EQUATION
3
1998, 3, 1.0, 666, 3, -0.5, 714, 3, -0.5
*EQUATION
3
2001, 1, 1.0, 713, 1, -0.5, 714, 1, -0.5
*EQUATION
3
2001, 2, 1.0, 713, 2, -0.5, 714, 2, -0.5
*EQUATION
3
2001, 3, 1.0, 713, 3, -0.5, 714, 3, -0.5
*EQUATION
3
2007, 1, 1.0, 697, 1, -0.5, 745, 1, -0.5
*EQUATION
3
2007, 2, 1.0, 697, 2, -0.5, 745, 2, -0.5
*EQUATION
3
2007, 3, 1.0, 697, 3, -0.5, 745, 3, -0.5
*EQUATION
5
2008, 1, 1.0, 697, 1, -0.25, 745, 1, -0.25, 746, 1, -0.25, 698, 1, -0.25
*EQUATION
5
2008, 2, 1.0, 697, 2, -0.25, 745, 2, -0.25, 746, 2, -0.25, 698, 2, -0.25
*EQUATION
5
2008, 3, 1.0, 697, 3, -0.25, 745, 3, -0.25, 746, 3, -0.25, 698, 3, -0.25
*EQUATION
3
2009, 1, 1.0, 698, 1, -0.5, 746, 1, -0.5
*EQUATION
3
2009, 2, 1.0, 698, 2, -0.5, 746, 2, -0.5
*EQUATION
3
2009, 3, 1.0, 698, 3, -0.5, 746, 3, -0.5
*EQUATION
3
2013, 1, 1.0, 745, 1, -0.5, 746, 1, -0.5
*EQUATION
3
2013, 2, 1.0, 745, 2, -0.5, 746, 2, -0.5
*EQUATION
3
2013, 3, 1.0, 745, 3, -0.5, 746, 3, -0.5
*EQUATION
5
2016, 1, 1.0, 698, 1, -0.25, 746, 1, -0.25, 747, 1, -0.25, 699, 1, -0.25
*EQUATION
5
2016, 2, 1.0, 698, 2, -0.25, 746, 2, -0.25, 747, 2, -0.25, 699, 2, -0.25
*EQUATION
5
2016, 3, 1.0, 698, 3, -0.25, 746, 3, -0.25, 747, 3, -0.25, 699, 3, -0.25
*EQUATION
3
2017, 1, 1.0, 699, 1, -0.5, 747, 1, -0.5
*EQUATION
3
2017, 2, 1.0, 699, 2, -0.5, 747, 2, -0.5
*EQUATION
3
2017, 3, 1.0, 699, 3, -0.5, 747, 3, -0.5
*EQUATION
3
2020, 1, 1.0, 746, 1, -0.5, 747, 1, -0.5
*EQUATION
3
2020, 2, 1.0, 746, 2, -0.5, 747, 2, -0.5
*EQUATION
3
2020, 3, 1.0, 746, 3, -0.5, 747, 3, -0.5
*EQUATION
3
2021, 1, 1.0, 701, 1, -0.5, 749, 1, -0.5
*EQUATION
3
2021, 2, 1.0, 701, 2, -0.5, 749, 2, -0.5
*EQUATION
3
2021, 3, 1.0, 701, 3, -0.5, 749, 3, -0.5
*EQUATION
5
2022, 1, 1.0, 701, 1, -0.25, 749, 1, -0.25, 750, 1, -0.25, 702, 1, -0.25
*EQUATION
5
2022, 2, 1.0, 701, 2, -0.25, 749, 2, -0.25, 750, 2, -0.25, 702, 2, -0.25
*EQUATION
5
2022, 3, 1.0, 701, 3, -0.25, 749, 3, -0.25, 750, 3, -0.25, 702, 3, -0.25
*EQUATION
3
2023, 1, 1.0, 702, 1, -0.5, 750, 1, -0.5
*EQUATION
3
2023, 2, 1.0, 702, 2, -0.5, 750, 2, -0.5
*EQUATION
3
2023, 3, 1.0, 702, 3, -0.5, 750, 3, -0.5
*EQUATION
5
2024, 1, 1.0, 701, 1, -0.25, 749, 1, -0.25, 751, 1, -0.25, 703, 1, -0.25
*EQUATION
5
2024, 2, 1.0, 701, 2, -0.25, 749, 2, -0.25, 751, 2, -0.25, 703, 2, -0.25
*EQUATION
5
2024, 3, 1.0, 701, 3, -0.25, 749, 3, -0.25, 751, 3, -0.25, 703, 3, -0.25
*EQUATION
3
2027, 1, 1.0, 703, 1, -0.5, 751, 1, -0.5
*EQUATION
3
2027, 2, 1.0, 703, 2, -0.5, 751, 2, -0.5
*EQUATION
3
2027, 3, 1.0, 703, 3, -0.5, 751, 3, -0.5
*EQUATION
5
2028, 1, 1.0, 703, 1, -0.25, 751, 1, -0.25, 752, 1, -0.25, 704, 1, -0.25
*EQUATION
5
2028, 2, 1.0, 703, 2, -0.25, 751, 2, -0.25, 752, 2, -0.25, 704, 2, -0.25
*EQUATION
5
2028, 3, 1.0, 703, 3, -0.25, 751, 3, -0.25, 752, 3, -0.25, 704, 3, -0.25
*EQUATION
3
2029, 1, 1.0, 704, 1, -0.5, 752, 1, -0.5
*EQUATION
3
2029, 2, 1.0, 704, 2, -0.5, 752, 2, -0.5
*EQUATION
3
2029, 3, 1.0, 704, 3, -0.5, 752, 3, -0.5
*EQUATION
3
2030, 1, 1.0, 707, 1, -0.5, 755, 1, -0.5
*EQUATION
3
2030, 2, 1.0, 707, 2, -0.5, 755, 2, -0.5
*EQUATION
3
2030, 3, 1.0, 707, 3, -0.5, 755, 3, -0.5
*EQUATION
5
2031, 1, 1.0, 707, 1, -0.25, 755, 1, -0.25, 756, 1, -0.25, 708, 1, -0.25
*EQUATION
5
2031, 2, 1.0, 707, 2, -0.25, 755, 2, -0.25, 756, 2, -0.25, 708, 2, -0.25
*EQUATION
5
2031, 3, 1.0, 707, 3, -0.25, 755, 3, -0.25, 756, 3, -0.25, 708, 3, -0.25
*EQUATION
3
2032, 1, 1.0, 708, 1, -0.5, 756, 1, -0.5
*EQUATION
3
2032, 2, 1.0, 708, 2, -0.5, 756, 2, -0.5
*EQUATION
3
2032, 3, 1.0, 708, 3, -0.5, 756, 3, -0.5
*EQUATION
5
2033, 1, 1.0, 707, 1, -0.25, 755, 1, -0.25, 758, 1, -0.25, 710, 1, -0.25
*EQUATION
5
2033, 2, 1.0, 707, 2, -0.25, 755, 2, -0.25, 758, 2, -0.25, 710, 2, -0.25
*EQUATION
5
2033, 3, 1.0, 707, 3, -0.25, 755, 3, -0.25, 758, 3, -0.25, 710, 3, -0.25
*EQUATION
3
2036, 1, 1.0, 710, 1, -0.5, 758, 1, -0.5
*EQUATION
3
2036, 2, 1.0, 710, 2, -0.5, 758, 2, -0.5
*EQUATION
3
2036, 3, 1.0, 710, 3, -0.5, 758, 3, -0.5
*EQUATION
5
2037, 1, 1.0, 710, 1, -0.25, 758, 1, -0.25, 759, 1, -0.25, 711, 1, -0.25
*EQUATION
5
2037, 2, 1.0, 710, 2, -0.25, 758, 2, -0.25, 759, 2, -0.25, 711, 2, -0.25
*EQUATION
5
2037, 3, 1.0, 710, 3, -0.25, 758, 3, -0.25, 759, 3, -0.25, 711, 3, -0.25
*EQUATION
3
2038, 1, 1.0, 711, 1, -0.5, 759, 1, -0.5
*EQUATION
3
2038, 2, 1.0, 711, 2, -0.5, 759, 2, -0.5
*EQUATION
3
2038, 3, 1.0, 711, 3, -0.5, 759, 3, -0.5
*EQUATION
3
2039, 1, 1.0, 712, 1, -0.5, 760, 1, -0.5
*EQUATION
3
2039, 2, 1.0, 712, 2, -0.5, 760, 2, -0.5
*EQUATION
3
2039, 3, 1.0, 712, 3, -0.5, 760, 3, -0.5
*EQUATION
5
2040, 1, 1.0, 712, 1, -0.25, 760, 1, -0.25, 761, 1, -0.25, 713, 1, -0.25
*EQUATION
5
2040, 2, 1.0, 712, 2, -0.25, 760, 2, -0.25, 761, 2, -0.25, 713, 2, -0.25
*EQUATION
5
2040, 3, 1.0, 712, 3, -0.25, 760, 3, -0.25, 761, 3, -0.25, 713, 3, -0.25
*EQUATION
3
2041, 1, 1.0, 713, 1, -0.5, 761, 1, -0.5
*EQUATION
3
2041, 2, 1.0, 713, 2, -0.5, 761, 2, -0.5
*EQUATION
3
2041, 3, 1.0, 713, 3, -0.5, 761, 3, -0.5
*EQUATION
3
2045, 1, 1.0, 760, 1, -0.5, 761, 1, -0.5
*EQUATION
3
2045, 2, 1.0, 760, 2, -0.5, 761, 2, -0.5
*EQUATION
3
2045, 3, 1.0, 760, 3, -0.5, 761, 3, -0.5
*EQUATION
5
2049, 1, 1.0, 713, 1, -0.25, 761, 1, -0.25, 762, 1, -0.25, 714, 1, -0.25
*EQUATION
5
2049, 2, 1.0, 713, 2, -0.25, 761, 2, -0.25, 762, 2, -0.25, 714, 2, -0.25
*EQUATION
5
2049, 3, 1.0, 713, 3, -0.25, 761, 3, -0.25, 762, 3, -0.25, 714, 3, -0.25
*EQUATION
3
2050, 1, 1.0, 714, 1, -0.5, 762, 1, -0.5
*EQUATION
3
2050, 2, 1.0, 714, 2, -0.5, 762, 2, -0.5
*EQUATION
3
2050, 3, 1.0, 714, 3, -0.5, 762, 3, -0.5
*EQUATION
3
2053, 1, 1.0, 761, 1, -0.5, 762, 1, -0.5
*EQUATION
3
2053, 2, 1.0, 761, 2, -0.5, 762, 2, -0.5
*EQUATION
3
2053, 3, 1.0, 761, 3, -0.5, 762, 3, -0.5
*EQUATION
3
2059, 1, 1.0, 745, 1, -0.5, 793, 1, -0.5
*EQUATION
3
2059, 2, 1.0, 745, 2, -0.5, 793, 2, -0.5
*EQUATION
3
2059, 3, 1.0, 745, 3, -0.5, 793, 3, -0.5
*EQUATION
5
2060, 1, 1.0, 745, 1, -0.25, 793, 1, -0.25, 794, 1, -0.25, 746, 1, -0.25
*EQUATION
5
2060, 2, 1.0, 745, 2, -0.25, 793, 2, -0.25, 794, 2, -0.25, 746, 2, -0.25
*EQUATION
5
2060, 3, 1.0, 745, 3, -0.25, 793, 3, -0.25, 794, 3, -0.25, 746, 3, -0.25
*EQUATION
3
2061, 1, 1.0, 746, 1, -0.5, 794, 1, -0.5
*EQUATION
3
2061, 2, 1.0, 746, 2, -0.5, 794, 2, -0.5
*EQUATION
3
2061, 3, 1.0, 746, 3, -0.5, 794, 3, -0.5
*EQUATION
3
2065, 1, 1.0, 793, 1, -0.5, 794, 1, -0.5
*EQUATION
3
2065, 2, 1.0, 793, 2, -0.5, 794, 2, -0.5
*EQUATION
3
2065, 3, 1.0, 793, 3, -0.5, 794, 3, -0.5
*EQUATION
5
2068, 1, 1.0, 746, 1, -0.25, 794, 1, -0.25, 795, 1, -0.25, 747, 1, -0.25
*EQUATION
5
2068, 2, 1.0, 746, 2, -0.25, 794, 2, -0.25, 795, 2, -0.25, 747, 2, -0.25
*EQUATION
5
2068, 3, 1.0, 746, 3, -0.25, 794, 3, -0.25, 795, 3, -0.25, 747, 3, -0.25
*EQUATION
3
2069, 1, 1.0, 747, 1, -0.5, 795, 1, -0.5
*EQUATION
3
2069, 2, 1.0, 747, 2, -0.5, 795, 2, -0.5
*EQUATION
3
2069, 3, 1.0, 747, 3, -0.5, 795, 3, -0.5
*EQUATION
3
2072, 1, 1.0, 794, 1, -0.5, 795, 1, -0.5
*EQUATION
3
2072, 2, 1.0, 794, 2, -0.5, 795, 2, -0.5
*EQUATION
3
2072, 3, 1.0, 794, 3, -0.5, 795, 3, -0.5
*EQUATION
3
2073, 1, 1.0, 748, 1, -0.5, 749, 1, -0.5
*EQUATION
3
2073, 2, 1.0, 748, 2, -0.5, 749, 2, -0.5
*EQUATION
3
2073, 3, 1.0, 748, 3, -0.5, 749, 3, -0.5
*EQUATION
3
2074, 1, 1.0, 731, 1, -0.5, 748, 1, -0.5
*EQUATION
3
2074, 2, 1.0, 731, 2, -0.5, 748, 2, -0.5
*EQUATION
3
2074, 3, 1.0, 731, 3, -0.5, 748, 3, -0.5
*EQUATION
5
2075, 1, 1.0, 748, 1, -0.25, 731, 1, -0.25, 751, 1, -0.25, 749, 1, -0.25
*EQUATION
5
2075, 2, 1.0, 748, 2, -0.25, 731, 2, -0.25, 751, 2, -0.25, 749, 2, -0.25
*EQUATION
5
2075, 3, 1.0, 748, 3, -0.25, 731, 3, -0.25, 751, 3, -0.25, 749, 3, -0.25
*EQUATION
3
2076, 1, 1.0, 731, 1, -0.5, 751, 1, -0.5
*EQUATION
3
2076, 2, 1.0, 731, 2, -0.5, 751, 2, -0.5
*EQUATION
3
2076, 3, 1.0, 731, 3, -0.5, 751, 3, -0.5
*EQUATION
3
2077, 1, 1.0, 748, 1, -0.5, 796, 1, -0.5
*EQUATION
3
2077, 2, 1.0, 748, 2, -0.5, 796, 2, -0.5
*EQUATION
3
2077, 3, 1.0, 748, 3, -0.5, 796, 3, -0.5
*EQUATION
5
2078, 1, 1.0, 748, 1, -0.25, 796, 1, -0.25, 797, 1, -0.25, 749, 1, -0.25
*EQUATION
5
2078, 2, 1.0, 748, 2, -0.25, 796, 2, -0.25, 797, 2, -0.25, 749, 2, -0.25
*EQUATION
5
2078, 3, 1.0, 748, 3, -0.25, 796, 3, -0.25, 797, 3, -0.25, 749, 3, -0.25
*EQUATION
3
2081, 1, 1.0, 731, 1, -0.5, 779, 1, -0.5
*EQUATION
3
2081, 2, 1.0, 731, 2, -0.5, 779, 2, -0.5
*EQUATION
3
2081, 3, 1.0, 731, 3, -0.5, 779, 3, -0.5
*EQUATION
5
2082, 1, 1.0, 731, 1, -0.25, 779, 1, -0.25, 799, 1, -0.25, 751, 1, -0.25
*EQUATION
5
2082, 2, 1.0, 731, 2, -0.25, 779, 2, -0.25, 799, 2, -0.25, 751, 2, -0.25
*EQUATION
5
2082, 3, 1.0, 731, 3, -0.25, 779, 3, -0.25, 799, 3, -0.25, 751, 3, -0.25
*EQUATION
3
2083, 1, 1.0, 796, 1, -0.5, 797, 1, -0.5
*EQUATION
3
2083, 2, 1.0, 796, 2, -0.5, 797, 2, -0.5
*EQUATION
3
2083, 3, 1.0, 796, 3, -0.5, 797, 3, -0.5
*EQUATION
3
2086, 1, 1.0, 779, 1, -0.5, 799, 1, -0.5
*EQUATION
3
2086, 2, 1.0, 779, 2, -0.5, 799, 2, -0.5
*EQUATION
3
2086, 3, 1.0, 779, 3, -0.5, 799, 3, -0.5
*EQUATION
3
2087, 1, 1.0, 738, 1, -0.5, 755, 1, -0.5
*EQUATION
3
2087, 2, 1.0, 738, 2, -0.5, 755, 2, -0.5
*EQUATION
3
2087, 3, 1.0, 738, 3, -0.5, 755, 3, -0.5
*EQUATION
3
2088, 1, 1.0, 738, 1, -0.5, 757, 1, -0.5
*EQUATION
3
2088, 2, 1.0, 738, 2, -0.5, 757, 2, -0.5
*EQUATION
3
2088, 3, 1.0, 738, 3, -0.5, 757, 3, -0.5
*EQUATION
5
2089, 1, 1.0, 738, 1, -0.25, 757, 1, -0.25, 758, 1, -0.25, 755, 1, -0.25
*EQUATION
5
2089, 2, 1.0, 738, 2, -0.25, 757, 2, -0.25, 758, 2, -0.25, 755, 2, -0.25
*EQUATION
5
2089, 3, 1.0, 738, 3, -0.25, 757, 3, -0.25, 758, 3, -0.25, 755, 3, -0.25
*EQUATION
3
2090, 1, 1.0, 757, 1, -0.5, 758, 1, -0.5
*EQUATION
3
2090, 2, 1.0, 757, 2, -0.5, 758, 2, -0.5
*EQUATION
3
2090, 3, 1.0, 757, 3, -0.5, 758, 3, -0.5
*EQUATION
3
2091, 1, 1.0, 738, 1, -0.5, 786, 1, -0.5
*EQUATION
3
2091, 2, 1.0, 738, 2, -0.5, 786, 2, -0.5
*EQUATION
3
2091, 3, 1.0, 738, 3, -0.5, 786, 3, -0.5
*EQUATION
5
2092, 1, 1.0, 738, 1, -0.25, 786, 1, -0.25, 803, 1, -0.25, 755, 1, -0.25
*EQUATION
5
2092, 2, 1.0, 738, 2, -0.25, 786, 2, -0.25, 803, 2, -0.25, 755, 2, -0.25
*EQUATION
5
2092, 3, 1.0, 738, 3, -0.25, 786, 3, -0.25, 803, 3, -0.25, 755, 3, -0.25
*EQUATION
3
2095, 1, 1.0, 757, 1, -0.5, 805, 1, -0.5
*EQUATION
3
2095, 2, 1.0, 757, 2, -0.5, 805, 2, -0.5
*EQUATION
3
2095, 3, 1.0, 757, 3, -0.5, 805, 3, -0.5
*EQUATION
5
2096, 1, 1.0, 757, 1, -0.25, 805, 1, -0.25, 806, 1, -0.25, 758, 1, -0.25
*EQUATION
5
2096, 2, 1.0, 757, 2, -0.25, 805, 2, -0.25, 806, 2, -0.25, 758, 2, -0.25
*EQUATION
5
2096, 3, 1.0, 757, 3, -0.25, 805, 3, -0.25, 806, 3, -0.25, 758, 3, -0.25
*EQUATION
3
2097, 1, 1.0, 786, 1, -0.5, 803, 1, -0.5
*EQUATION
3
2097, 2, 1.0, 786, 2, -0.5, 803, 2, -0.5
*EQUATION
3
2097, 3, 1.0, 786, 3, -0.5, 803, 3, -0.5
*EQUATION
3
2100, 1, 1.0, 805, 1, -0.5, 806, 1, -0.5
*EQUATION
3
2100, 2, 1.0, 805, 2, -0.5, 806, 2, -0.5
*EQUATION
3
2100, 3, 1.0, 805, 3, -0.5, 806, 3, -0.5
*EQUATION
3
2101, 1, 1.0, 760, 1, -0.5, 808, 1, -0.5
*EQUATION
3
2101, 2, 1.0, 760, 2, -0.5, 808, 2, -0.5
*EQUATION
3
2101, 3, 1.0, 760, 3, -0.5, 808, 3, -0.5
*EQUATION
5
2102, 1, 1.0, 760, 1, -0.25, 808, 1, -0.25, 809, 1, -0.25, 761, 1, -0.25
*EQUATION
5
2102, 2, 1.0, 760, 2, -0.25, 808, 2, -0.25, 809, 2, -0.25, 761, 2, -0.25
*EQUATION
5
2102, 3, 1.0, 760, 3, -0.25, 808, 3, -0.25, 809, 3, -0.25, 761, 3, -0.25
*EQUATION
3
2103, 1, 1.0, 761, 1, -0.5, 809, 1, -0.5
*EQUATION
3
2103, 2, 1.0, 761, 2, -0.5, 809, 2, -0.5
*EQUATION
3
2103, 3, 1.0, 761, 3, -0.5, 809, 3, -0.5
*EQUATION
3
2107, 1, 1.0, 808, 1, -0.5, 809, 1, -0.5
*EQUATION
3
2107, 2, 1.0, 808, 2, -0.5, 809, 2, -0.5
*EQUATION
3
2107, 3, 1.0, 808, 3, -0.5, 809, 3, -0.5
*EQUATION
5
2111, 1, 1.0, 761, 1, -0.25, 809, 1, -0.25, 810, 1, -0.25, 762, 1, -0.25
*EQUATION
5
2111, 2, 1.0, 761, 2, -0.25, 809, 2, -0.25, 810, 2, -0.25, 762, 2, -0.25
*EQUATION
5
2111, 3, 1.0, 761, 3, -0.25, 809, 3, -0.25, 810, 3, -0.25, 762, 3, -0.25
*EQUATION
3
2112, 1, 1.0, 762, 1, -0.5, 810, 1, -0.5
*EQUATION
3
2112, 2, 1.0, 762, 2, -0.5, 810, 2, -0.5
*EQUATION
3
2112, 3, 1.0, 762, 3, -0.5, 810, 3, -0.5
*EQUATION
3
2115, 1, 1.0, 809, 1, -0.5, 810, 1, -0.5
*EQUATION
3
2115, 2, 1.0, 809, 2, -0.5, 810, 2, -0.5
*EQUATION
3
2115, 3, 1.0, 809, 3, -0.5, 810, 3, -0.5
*EQUATION
3
2121, 1, 1.0, 793, 1, -0.5, 841, 1, -0.5
*EQUATION
3
2121, 2, 1.0, 793, 2, -0.5, 841, 2, -0.5
*EQUATION
3
2121, 3, 1.0, 793, 3, -0.5, 841, 3, -0.5
*EQUATION
5
2122, 1, 1.0, 793, 1, -0.25, 841, 1, -0.25, 842, 1, -0.25, 794, 1, -0.25
*EQUATION
5
2122, 2, 1.0, 793, 2, -0.25, 841, 2, -0.25, 842, 2, -0.25, 794, 2, -0.25
*EQUATION
5
2122, 3, 1.0, 793, 3, -0.25, 841, 3, -0.25, 842, 3, -0.25, 794, 3, -0.25
*EQUATION
3
2123, 1, 1.0, 794, 1, -0.5, 842, 1, -0.5
*EQUATION
3
2123, 2, 1.0, 794, 2, -0.5, 842, 2, -0.5
*EQUATION
3
2123, 3, 1.0, 794, 3, -0.5, 842, 3, -0.5
*EQUATION
3
2127, 1, 1.0, 841, 1, -0.5, 842, 1, -0.5
*EQUATION
3
2127, 2, 1.0, 841, 2, -0.5, 842, 2, -0.5
*EQUATION
3
2127, 3, 1.0, 841, 3, -0.5, 842, 3, -0.5
*EQUATION
5
2130, 1, 1.0, 794, 1, -0.25, 842, 1, -0.25, 843, 1, -0.25, 795, 1, -0.25
*EQUATION
5
2130, 2, 1.0, 794, 2, -0.25, 842, 2, -0.25, 843, 2, -0.25, 795, 2, -0.25
*EQUATION
5
2130, 3, 1.0, 794, 3, -0.25, 842, 3, -0.25, 843, 3, -0.25, 795, 3, -0.25
*EQUATION
3
2131, 1, 1.0, 795, 1, -0.5, 843, 1, -0.5
*EQUATION
3
2131, 2, 1.0, 795, 2, -0.5, 843, 2, -0.5
*EQUATION
3
2131, 3, 1.0, 795, 3, -0.5, 843, 3, -0.5
*EQUATION
3
2134, 1, 1.0, 842, 1, -0.5, 843, 1, -0.5
*EQUATION
3
2134, 2, 1.0, 842, 2, -0.5, 843, 2, -0.5
*EQUATION
3
2134, 3, 1.0, 842, 3, -0.5, 843, 3, -0.5
*EQUATION
3
2135, 1, 1.0, 796, 1, -0.5, 844, 1, -0.5
*EQUATION
3
2135, 2, 1.0, 796, 2, -0.5, 844, 2, -0.5
*EQUATION
3
2135, 3, 1.0, 796, 3, -0.5, 844, 3, -0.5
*EQUATION
5
2136, 1, 1.0, 796, 1, -0.25, 844, 1, -0.25, 845, 1, -0.25, 797, 1, -0.25
*EQUATION
5
2136, 2, 1.0, 796, 2, -0.25, 844, 2, -0.25, 845, 2, -0.25, 797, 2, -0.25
*EQUATION
5
2136, 3, 1.0, 796, 3, -0.25, 844, 3, -0.25, 845, 3, -0.25, 797, 3, -0.25
*EQUATION
3
2139, 1, 1.0, 779, 1, -0.5, 827, 1, -0.5
*EQUATION
3
2139, 2, 1.0, 779, 2, -0.5, 827, 2, -0.5
*EQUATION
3
2139, 3, 1.0, 779, 3, -0.5, 827, 3, -0.5
*EQUATION
5
2140, 1, 1.0, 779, 1, -0.25, 827, 1, -0.25, 847, 1, -0.25, 799, 1, -0.25
*EQUATION
5
2140, 2, 1.0, 779, 2, -0.25, 827, 2, -0.25, 847, 2, -0.25, 799, 2, -0.25
*EQUATION
5
2140, 3, 1.0, 779, 3, -0.25, 827, 3, -0.25, 847, 3, -0.25, 799, 3, -0.25
*EQUATION
3
2141, 1, 1.0, 844, 1, -0.5, 845, 1, -0.5
*EQUATION
3
2141, 2, 1.0, 844, 2, -0.5, 845, 2, -0.5
*EQUATION
3
2141, 3, 1.0, 844, 3, -0.5, 845, 3, -0.5
*EQUATION
3
2142, 1, 1.0, 827, 1, -0.5, 844, 1, -0.5
*EQUATION
3
2142, 2, 1.0, 827, 2, -0.5, 844, 2, -0.5
*EQUATION
3
2142, 3, 1.0, 827, 3, -0.5, 844, 3, -0.5
*EQUATION
5
2143, 1, 1.0, 844, 1, -0.25, 827, 1, -0.25, 847, 1, -0.25, 845, 1, -0.25
*EQUATION
5
2143, 2, 1.0, 844, 2, -0.25, 827, 2, -0.25, 847, 2, -0.25, 845, 2, -0.25
*EQUATION
5
2143, 3, 1.0, 844, 3, -0.25, 827, 3, -0.25, 847, 3, -0.25, 845, 3, -0.25
*EQUATION
3
2144, 1, 1.0, 827, 1, -0.5, 847, 1, -0.5
*EQUATION
3
2144, 2, 1.0, 827, 2, -0.5, 847, 2, -0.5
*EQUATION
3
2144, 3, 1.0, 827, 3, -0.5, 847, 3, -0.5
*EQUATION
3
2145, 1, 1.0, 786, 1, -0.5, 834, 1, -0.5
*EQUATION
3
2145, 2, 1.0, 786, 2, -0.5, 834, 2, -0.5
*EQUATION
3
2145, 3, 1.0, 786, 3, -0.5, 834, 3, -0.5
*EQUATION
5
2146, 1, 1.0, 786, 1, -0.25, 834, 1, -0.25, 851, 1, -0.25, 803, 1, -0.25
*EQUATION
5
2146, 2, 1.0, 786, 2, -0.25, 834, 2, -0.25, 851, 2, -0.25, 803, 2, -0.25
*EQUATION
5
2146, 3, 1.0, 786, 3, -0.25, 834, 3, -0.25, 851, 3, -0.25, 803, 3, -0.25
*EQUATION
3
2149, 1, 1.0, 805, 1, -0.5, 853, 1, -0.5
*EQUATION
3
2149, 2, 1.0, 805, 2, -0.5, 853, 2, -0.5
*EQUATION
3
2149, 3, 1.0, 805, 3, -0.5, 853, 3, -0.5
*EQUATION
5
2150, 1, 1.0, 805, 1, -0.25, 853, 1, -0.25, 854, 1, -0.25, 806, 1, -0.25
*EQUATION
5
2150, 2, 1.0, 805, 2, -0.25, 853, 2, -0.25, 854, 2, -0.25, 806, 2, -0.25
*EQUATION
5
2150, 3, 1.0, 805, 3, -0.25, 853, 3, -0.25, 854, 3, -0.25, 806, 3, -0.25
*EQUATION
3
2151, 1, 1.0, 834, 1, -0.5, 851, 1, -0.5
*EQUATION
3
2151, 2, 1.0, 834, 2, -0.5, 851, 2, -0.5
*EQUATION
3
2151, 3, 1.0, 834, 3, -0.5, 851, 3, -0.5
*EQUATION
3
2152, 1, 1.0, 834, 1, -0.5, 853, 1, -0.5
*EQUATION
3
2152, 2, 1.0, 834, 2, -0.5, 853, 2, -0.5
*EQUATION
3
2152, 3, 1.0, 834, 3, -0.5, 853, 3, -0.5
*EQUATION
5
2153, 1, 1.0, 834, 1, -0.25, 853, 1, -0.25, 854, 1, -0.25, 851, 1, -0.25
*EQUATION
5
2153, 2, 1.0, 834, 2, -0.25, 853, 2, -0.25, 854, 2, -0.25, 851, 2, -0.25
*EQUATION
5
2153, 3, 1.0, 834, 3, -0.25, 853, 3, -0.25, 854, 3, -0.25, 851, 3, -0.25
*EQUATION
3
2154, 1, 1.0, 853, 1, -0.5, 854, 1, -0.5
*EQUATION
3
2154, 2, 1.0, 853, 2, -0.5, 854, 2, -0.5
*EQUATION
3
2154, 3, 1.0, 853, 3, -0.5, 854, 3, -0.5
*EQUATION
3
2155, 1, 1.0, 806, 1, -0.5, 809, 1, -0.5
*EQUATION
3
2155, 2, 1.0, 806, 2, -0.5, 809, 2, -0.5
*EQUATION
3
2155, 3, 1.0, 806, 3, -0.5, 809, 3, -0.5
*EQUATION
5
2156, 1, 1.0, 806, 1, -0.25, 809, 1, -0.25, 810, 1, -0.25, 807, 1, -0.25
*EQUATION
5
2156, 2, 1.0, 806, 2, -0.25, 809, 2, -0.25, 810, 2, -0.25, 807, 2, -0.25
*EQUATION
5
2156, 3, 1.0, 806, 3, -0.25, 809, 3, -0.25, 810, 3, -0.25, 807, 3, -0.25
*EQUATION
3
2157, 1, 1.0, 807, 1, -0.5, 810, 1, -0.5
*EQUATION
3
2157, 2, 1.0, 807, 2, -0.5, 810, 2, -0.5
*EQUATION
3
2157, 3, 1.0, 807, 3, -0.5, 810, 3, -0.5
*EQUATION
5
2158, 1, 1.0, 806, 1, -0.25, 854, 1, -0.25, 857, 1, -0.25, 809, 1, -0.25
*EQUATION
5
2158, 2, 1.0, 806, 2, -0.25, 854, 2, -0.25, 857, 2, -0.25, 809, 2, -0.25
*EQUATION
5
2158, 3, 1.0, 806, 3, -0.25, 854, 3, -0.25, 857, 3, -0.25, 809, 3, -0.25
*EQUATION
3
2161, 1, 1.0, 809, 1, -0.5, 857, 1, -0.5
*EQUATION
3
2161, 2, 1.0, 809, 2, -0.5, 857, 2, -0.5
*EQUATION
3
2161, 3, 1.0, 809, 3, -0.5, 857, 3, -0.5
*EQUATION
3
2164, 1, 1.0, 854, 1, -0.5, 857, 1, -0.5
*EQUATION
3
2164, 2, 1.0, 854, 2, -0.5, 857, 2, -0.5
*EQUATION
3
2164, 3, 1.0, 854, 3, -0.5, 857, 3, -0.5
*EQUATION
5
2165, 1, 1.0, 854, 1, -0.25, 857, 1, -0.25, 858, 1, -0.25, 855, 1, -0.25
*EQUATION
5
2165, 2, 1.0, 854, 2, -0.25, 857, 2, -0.25, 858, 2, -0.25, 855, 2, -0.25
*EQUATION
5
2165, 3, 1.0, 854, 3, -0.25, 857, 3, -0.25, 858, 3, -0.25, 855, 3, -0.25
*EQUATION
3
2166, 1, 1.0, 855, 1, -0.5, 858, 1, -0.5
*EQUATION
3
2166, 2, 1.0, 855, 2, -0.5, 858, 2, -0.5
*EQUATION
3
2166, 3, 1.0, 855, 3, -0.5, 858, 3, -0.5
*EQUATION
3
2167, 1, 1.0, 857, 1, -0.5, 858, 1, -0.5
*EQUATION
3
2167, 2, 1.0, 857, 2, -0.5, 858, 2, -0.5
*EQUATION
3
2167, 3, 1.0, 857, 3, -0.5, 858, 3, -0.5
*EQUATION
3
2168, 1, 1.0, 808, 1, -0.5, 856, 1, -0.5
*EQUATION
3
2168, 2, 1.0, 808, 2, -0.5, 856, 2, -0.5
*EQUATION
3
2168, 3, 1.0, 808, 3, -0.5, 856, 3, -0.5
*EQUATION
5
2169, 1, 1.0, 808, 1, -0.25, 856, 1, -0.25, 857, 1, -0.25, 809, 1, -0.25
*EQUATION
5
2169, 2, 1.0, 808, 2, -0.25, 856, 2, -0.25, 857, 2, -0.25, 809, 2, -0.25
*EQUATION
5
2169, 3, 1.0, 808, 3, -0.25, 856, 3, -0.25, 857, 3, -0.25, 809, 3, -0.25
*EQUATION
3
2173, 1, 1.0, 856, 1, -0.5, 857, 1, -0.5
*EQUATION
3
2173, 2, 1.0, 856, 2, -0.5, 857, 2, -0.5
*EQUATION
3
2173, 3, 1.0, 856, 3, -0.5, 857, 3, -0.5
*EQUATION
3
2184, 1, 1.0, 841, 1, -0.5, 889, 1, -0.5
*EQUATION
3
2184, 2, 1.0, 841, 2, -0.5, 889, 2, -0.5
*EQUATION
3
2184, 3, 1.0, 841, 3, -0.5, 889, 3, -0.5
*EQUATION
5
2185, 1, 1.0, 841, 1, -0.25, 889, 1, -0.25, 890, 1, -0.25, 842, 1, -0.25
*EQUATION
5
2185, 2, 1.0, 841, 2, -0.25, 889, 2, -0.25, 890, 2, -0.25, 842, 2, -0.25
*EQUATION
5
2185, 3, 1.0, 841, 3, -0.25, 889, 3, -0.25, 890, 3, -0.25, 842, 3, -0.25
*EQUATION
3
2186, 1, 1.0, 842, 1, -0.5, 890, 1, -0.5
*EQUATION
3
2186, 2, 1.0, 842, 2, -0.5, 890, 2, -0.5
*EQUATION
3
2186, 3, 1.0, 842, 3, -0.5, 890, 3, -0.5
*EQUATION
3
2190, 1, 1.0, 889, 1, -0.5, 890, 1, -0.5
*EQUATION
3
2190, 2, 1.0, 889, 2, -0.5, 890, 2, -0.5
*EQUATION
3
2190, 3, 1.0, 889, 3, -0.5, 890, 3, -0.5
*EQUATION
5
2193, 1, 1.0, 842, 1, -0.25, 890, 1, -0.25, 891, 1, -0.25, 843, 1, -0.25
*EQUATION
5
2193, 2, 1.0, 842, 2, -0.25, 890, 2, -0.25, 891, 2, -0.25, 843, 2, -0.25
*EQUATION
5
2193, 3, 1.0, 842, 3, -0.25, 890, 3, -0.25, 891, 3, -0.25, 843, 3, -0.25
*EQUATION
3
2194, 1, 1.0, 843, 1, -0.5, 891, 1, -0.5
*EQUATION
3
2194, 2, 1.0, 843, 2, -0.5, 891, 2, -0.5
*EQUATION
3
2194, 3, 1.0, 843, 3, -0.5, 891, 3, -0.5
*EQUATION
3
2197, 1, 1.0, 890, 1, -0.5, 891, 1, -0.5
*EQUATION
3
2197, 2, 1.0, 890, 2, -0.5, 891, 2, -0.5
*EQUATION
3
2197, 3, 1.0, 890, 3, -0.5, 891, 3, -0.5
*EQUATION
3
2198, 1, 1.0, 845, 1, -0.5, 893, 1, -0.5
*EQUATION
3
2198, 2, 1.0, 845, 2, -0.5, 893, 2, -0.5
*EQUATION
3
2198, 3, 1.0, 845, 3, -0.5, 893, 3, -0.5
*EQUATION
5
2199, 1, 1.0, 845, 1, -0.25, 893, 1, -0.25, 894, 1, -0.25, 846, 1, -0.25
*EQUATION
5
2199, 2, 1.0, 845, 2, -0.25, 893, 2, -0.25, 894, 2, -0.25, 846, 2, -0.25
*EQUATION
5
2199, 3, 1.0, 845, 3, -0.25, 893, 3, -0.25, 894, 3, -0.25, 846, 3, -0.25
*EQUATION
3
2200, 1, 1.0, 846, 1, -0.5, 894, 1, -0.5
*EQUATION
3
2200, 2, 1.0, 846, 2, -0.5, 894, 2, -0.5
*EQUATION
3
2200, 3, 1.0, 846, 3, -0.5, 894, 3, -0.5
*EQUATION
5
2201, 1, 1.0, 845, 1, -0.25, 893, 1, -0.25, 895, 1, -0.25, 847, 1, -0.25
*EQUATION
5
2201, 2, 1.0, 845, 2, -0.25, 893, 2, -0.25, 895, 2, -0.25, 847, 2, -0.25
*EQUATION
5
2201, 3, 1.0, 845, 3, -0.25, 893, 3, -0.25, 895, 3, -0.25, 847, 3, -0.25
*EQUATION
3
2204, 1, 1.0, 847, 1, -0.5, 895, 1, -0.5
*EQUATION
3
2204, 2, 1.0, 847, 2, -0.5, 895, 2, -0.5
*EQUATION
3
2204, 3, 1.0, 847, 3, -0.5, 895, 3, -0.5
*EQUATION
3
2207, 1, 1.0, 893, 1, -0.5, 894, 1, -0.5
*EQUATION
3
2207, 2, 1.0, 893, 2, -0.5, 894, 2, -0.5
*EQUATION
3
2207, 3, 1.0, 893, 3, -0.5, 894, 3, -0.5
*EQUATION
3
2208, 1, 1.0, 893, 1, -0.5, 895, 1, -0.5
*EQUATION
3
2208, 2, 1.0, 893, 2, -0.5, 895, 2, -0.5
*EQUATION
3
2208, 3, 1.0, 893, 3, -0.5, 895, 3, -0.5
*EQUATION
3
2212, 1, 1.0, 847, 1, -0.5, 849, 1, -0.5
*EQUATION
3
2212, 2, 1.0, 847, 2, -0.5, 849, 2, -0.5
*EQUATION
3
2212, 3, 1.0, 847, 3, -0.5, 849, 3, -0.5
*EQUATION
5
2213, 1, 1.0, 847, 1, -0.25, 849, 1, -0.25, 850, 1, -0.25, 848, 1, -0.25
*EQUATION
5
2213, 2, 1.0, 847, 2, -0.25, 849, 2, -0.25, 850, 2, -0.25, 848, 2, -0.25
*EQUATION
5
2213, 3, 1.0, 847, 3, -0.25, 849, 3, -0.25, 850, 3, -0.25, 848, 3, -0.25
*EQUATION
3
2214, 1, 1.0, 848, 1, -0.5, 850, 1, -0.5
*EQUATION
3
2214, 2, 1.0, 848, 2, -0.5, 850, 2, -0.5
*EQUATION
3
2214, 3, 1.0, 848, 3, -0.5, 850, 3, -0.5
*EQUATION
3
2215, 1, 1.0, 849, 1, -0.5, 850, 1, -0.5
*EQUATION
3
2215, 2, 1.0, 849, 2, -0.5, 850, 2, -0.5
*EQUATION
3
2215, 3, 1.0, 849, 3, -0.5, 850, 3, -0.5
*EQUATION
5
2216, 1, 1.0, 847, 1, -0.25, 895, 1, -0.25, 897, 1, -0.25, 849, 1, -0.25
*EQUATION
5
2216, 2, 1.0, 847, 2, -0.25, 895, 2, -0.25, 897, 2, -0.25, 849, 2, -0.25
*EQUATION
5
2216, 3, 1.0, 847, 3, -0.25, 895, 3, -0.25, 897, 3, -0.25, 849, 3, -0.25
*EQUATION
3
2219, 1, 1.0, 849, 1, -0.5, 897, 1, -0.5
*EQUATION
3
2219, 2, 1.0, 849, 2, -0.5, 897, 2, -0.5
*EQUATION
3
2219, 3, 1.0, 849, 3, -0.5, 897, 3, -0.5
*EQUATION
5
2220, 1, 1.0, 849, 1, -0.25, 897, 1, -0.25, 898, 1, -0.25, 850, 1, -0.25
*EQUATION
5
2220, 2, 1.0, 849, 2, -0.25, 897, 2, -0.25, 898, 2, -0.25, 850, 2, -0.25
*EQUATION
5
2220, 3, 1.0, 849, 3, -0.25, 897, 3, -0.25, 898, 3, -0.25, 850, 3, -0.25
*EQUATION
3
2221, 1, 1.0, 850, 1, -0.5, 898, 1, -0.5
*EQUATION
3
2221, 2, 1.0, 850, 2, -0.5, 898, 2, -0.5
*EQUATION
3
2221, 3, 1.0, 850, 3, -0.5, 898, 3, -0.5
*EQUATION
3
2222, 1, 1.0, 895, 1, -0.5, 897, 1, -0.5
*EQUATION
3
2222, 2, 1.0, 895, 2, -0.5, 897, 2, -0.5
*EQUATION
3
2222, 3, 1.0, 895, 3, -0.5, 897, 3, -0.5
*EQUATION
3
2225, 1, 1.0, 897, 1, -0.5, 898, 1, -0.5
*EQUATION
3
2225, 2, 1.0, 897, 2, -0.5, 898, 2, -0.5
*EQUATION
3
2225, 3, 1.0, 897, 3, -0.5, 898, 3, -0.5
*EQUATION
3
2226, 1, 1.0, 856, 1, -0.5, 904, 1, -0.5
*EQUATION
3
2226, 2, 1.0, 856, 2, -0.5, 904, 2, -0.5
*EQUATION
3
2226, 3, 1.0, 856, 3, -0.5, 904, 3, -0.5
*EQUATION
5
2227, 1, 1.0, 856, 1, -0.25, 904, 1, -0.25, 905, 1, -0.25, 857, 1, -0.25
*EQUATION
5
2227, 2, 1.0, 856, 2, -0.25, 904, 2, -0.25, 905, 2, -0.25, 857, 2, -0.25
*EQUATION
5
2227, 3, 1.0, 856, 3, -0.25, 904, 3, -0.25, 905, 3, -0.25, 857, 3, -0.25
*EQUATION
3
2228, 1, 1.0, 857, 1, -0.5, 905, 1, -0.5
*EQUATION
3
2228, 2, 1.0, 857, 2, -0.5, 905, 2, -0.5
*EQUATION
3
2228, 3, 1.0, 857, 3, -0.5, 905, 3, -0.5
*EQUATION
3
2232, 1, 1.0, 904, 1, -0.5, 905, 1, -0.5
*EQUATION
3
2232, 2, 1.0, 904, 2, -0.5, 905, 2, -0.5
*EQUATION
3
2232, 3, 1.0, 904, 3, -0.5, 905, 3, -0.5
*EQUATION
5
2236, 1, 1.0, 857, 1, -0.25, 905, 1, -0.25, 906, 1, -0.25, 858, 1, -0.25
*EQUATION
5
2236, 2, 1.0, 857, 2, -0.25, 905, 2, -0.25, 906, 2, -0.25, 858, 2, -0.25
*EQUATION
5
2236, 3, 1.0, 857, 3, -0.25, 905, 3, -0.25, 906, 3, -0.25, 858, 3, -0.25
*EQUATION
3
2237, 1, 1.0, 858, 1, -0.5, 906, 1, -0.5
*EQUATION
3
2237, 2, 1.0, 858, 2, -0.5, 906, 2, -0.5
*EQUATION
3
2237, 3, 1.0, 858, 3, -0.5, 906, 3, -0.5
*EQUATION
3
2240, 1, 1.0, 905, 1, -0.5, 906, 1, -0.5
*EQUATION
3
2240, 2, 1.0, 905, 2, -0.5, 906, 2, -0.5
*EQUATION
3
2240, 3, 1.0, 905, 3, -0.5, 906, 3, -0.5
*BOUNDARY
CLAMP, 1, 3, 0.0
*STEP
*STATIC
*CLOAD
887, 3, -277.777777778
888, 3, -277.777777778
891, 3, -277.777777778
894, 3, -277.777777778
896, 3, -277.777777778
898, 3, -277.777777778
900, 3, -277.777777778
903, 3, -277.777777778
906, 3, -277.777777778
909, 3, -277.777777778
912, 3, -277.777777778
1440, 3, -277.777777778
1454, 3, -277.777777778
1478, 3, -277.777777778
2196, 3, -277.777777778
2210, 3, -277.777777778
2224, 3, -277.777777778
2242, 3, -277.777777778
*NODE FILE
U
*EL FILE
S, ENER
*NODE PRINT, NSET=TIP_TOP
U
*NODE PRINT, NSET=CLAMP
RF
*EL PRINT, ELSET=EALL
ELSE
*ENERGY PRINT
*END STEP
