*HEADING
Normalized cross-passage space-truss torsion benchmark
*NODE
1,-1.200000000000e+00,0.000000000000e+00,0.000000000000e+00
2,1.200000000000e+00,0.000000000000e+00,0.000000000000e+00
3,-1.200000000000e+00,0.000000000000e+00,2.000000000000e+00
4,1.200000000000e+00,0.000000000000e+00,2.000000000000e+00
5,-1.200000000000e+00,1.000000000000e+01,0.000000000000e+00
6,1.200000000000e+00,1.000000000000e+01,0.000000000000e+00
7,-1.200000000000e+00,1.000000000000e+01,2.000000000000e+00
8,1.200000000000e+00,1.000000000000e+01,2.000000000000e+00
9,-1.200000000000e+00,2.000000000000e+01,0.000000000000e+00
10,1.200000000000e+00,2.000000000000e+01,0.000000000000e+00
11,-1.200000000000e+00,2.000000000000e+01,2.000000000000e+00
12,1.200000000000e+00,2.000000000000e+01,2.000000000000e+00
13,-1.200000000000e+00,3.000000000000e+01,0.000000000000e+00
14,1.200000000000e+00,3.000000000000e+01,0.000000000000e+00
15,-1.200000000000e+00,3.000000000000e+01,2.000000000000e+00
16,1.200000000000e+00,3.000000000000e+01,2.000000000000e+00
17,-1.200000000000e+00,4.000000000000e+01,0.000000000000e+00
18,1.200000000000e+00,4.000000000000e+01,0.000000000000e+00
19,-1.200000000000e+00,4.000000000000e+01,2.000000000000e+00
20,1.200000000000e+00,4.000000000000e+01,2.000000000000e+00
** ... 160 like lines cut
*ELEMENT,TYPE=B31,ELSET=ALL
1,1,25
2,25,5
3,2,26
4,26,6
5,3,27
6,27,7
7,4,28
8,28,8
9,5,29
10,29,30
11,30,31
12,31,32
13,32,33
14,33,34
15,34,35
16,35,9
17,6,36
18,36,37
19,37,38
20,38,39
** ... 220 like lines cut
*NSET,NSET=NALL,GENERATE
1,180,1
*NSET,NSET=LEFT
1,2,3,4
*NSET,NSET=RIGHT
21,22,23,24
*MATERIAL,NAME=STEEL
*ELASTIC
2.100000000000e+11,0.300000000000
*BEAM SECTION,ELSET=ALL,MATERIAL=STEEL,SECTION=RECT
6.000000000000e-02,4.000000000000e-02
0.371390676354,0.557086014531,0.742781352708
*BOUNDARY
LEFT,1,6,0.0
*STEP
*STATIC
*BOUNDARY
21,1,1,5.000000000000e-03
21,2,2,0.0
21,3,3,-6.000000000000e-03
*BOUNDARY
22,1,1,5.000000000000e-03
22,2,2,0.0
22,3,3,6.000000000000e-03
*BOUNDARY
23,1,1,-5.000000000000e-03
23,2,2,0.0
23,3,3,-6.000000000000e-03
*BOUNDARY
24,1,1,-5.000000000000e-03
24,2,2,0.0
24,3,3,6.000000000000e-03
*NODE FILE,NSET=NALL
U
*NODE PRINT,NSET=NALL
U
*NODE PRINT,NSET=RIGHT
RF
*EL PRINT,ELSET=ALL,TOTALS=YES
ELSE
*END STEP
