*HEADING
G01 S-LIN hanging 8-split zz cycle 2
units: mm, N, s, MPa. Material is illustrative steel, not a coupon card.
E=210000.0 nu=0.3. load -5000.0 N on TIP_TOP.
*NODE, NSET=NALL
1, 0, -10, 0
2, 111.111111111, -10, 0
3, 111.111111111, 0, 0
4, 0, 0, 0
5, 0, -10, 28
6, 111.111111111, -10, 28
7, 111.111111111, 0, 28
8, 0, 0, 28
9, 0, -10, 56
10, 111.111111111, -10, 56
11, 111.111111111, 0, 56
12, 0, 0, 56
13, 0, -10, 84
14, 111.111111111, -10, 84
15, 111.111111111, 0, 84
16, 0, 0, 84
17, 0, -10, 112
18, 111.111111111, -10, 112
19, 111.111111111, 0, 112
20, 0, 0, 112
** ... 2009 like lines cut
*ELEMENT, TYPE=C3D8, ELSET=EALL
1, 1, 1363, 1366, 1359, 1358, 1364, 1367, 1360
2, 1358, 1364, 1367, 1360, 913, 1365, 1368, 1361
3, 1359, 1366, 1369, 914, 1360, 1367, 1370, 1362
4, 1360, 1367, 1370, 1362, 1361, 1368, 1371, 915
5, 1363, 918, 1373, 1366, 1364, 1372, 1374, 1367
6, 1364, 1372, 1374, 1367, 1365, 919, 1375, 1368
7, 1366, 1373, 921, 1369, 1367, 1374, 1376, 1370
8, 1367, 1374, 1376, 1370, 1368, 1375, 922, 1371
9, 913, 919, 922, 915, 5, 920, 923, 916
10, 914, 1369, 1381, 1377, 1362, 1370, 1382, 1378
11, 1362, 1370, 1382, 1378, 915, 1371, 1383, 1379
12, 1377, 1381, 1384, 4, 1378, 1382, 1385, 1380
13, 1378, 1382, 1385, 1380, 1379, 1383, 1386, 917
14, 1369, 921, 1387, 1381, 1370, 1376, 1388, 1382
15, 1370, 1376, 1388, 1382, 1371, 922, 1389, 1383
16, 1381, 1387, 924, 1384, 1382, 1388, 1390, 1385
17, 1382, 1388, 1390, 1385, 1383, 1389, 925, 1386
18, 915, 922, 925, 917, 916, 923, 926, 8
19, 918, 1391, 1394, 1373, 1372, 1392, 1395, 1374
20, 1372, 1392, 1395, 1374, 919, 1393, 1396, 1375
** ... 1164 like lines cut
*NSET, NSET=CLAMP
1, 4, 5, 8, 9, 12, 13, 16, 17, 20, 21, 24, 26, 28, 30, 32
34, 36, 37, 40, 41, 44, 45, 48, 50, 52, 54, 56, 58, 60, 62, 64
66, 68, 70, 72, 74, 76, 78, 80, 82, 84, 86, 88, 90, 92, 94, 96
913, 914, 915, 916, 917, 932, 933, 934, 935, 946, 947, 948, 949, 960, 961, 962
1358, 1359, 1360, 1361, 1362, 1377, 1378, 1379, 1380, 1463, 1464, 1465, 1466, 1473, 1474, 1475
1476, 1487, 1488, 1489, 1490, 1561, 1562, 1563
*NSET, NSET=TIP_TOP
887, 888, 891, 894, 896, 898, 900, 903, 906, 909, 912
*MATERIAL, NAME=STEEL
*ELASTIC
210000, 0.3
*SOLID SECTION, ELSET=EALL, MATERIAL=STEEL
*EQUATION
3
992, 1, 1.0, 101, 1, -0.5, 102, 1, -0.5
*EQUATION
3
992, 2, 1.0, 101, 2, -0.5, 102, 2, -0.5
*EQUATION
3
992, 3, 1.0, 101, 3, -0.5, 102, 3, -0.5
*EQUATION
3
996, 1, 1.0, 14, 1, -0.5, 15, 1, -0.5
*EQUATION
3
996, 2, 1.0, 14, 2, -0.5, 15, 2, -0.5
*EQUATION
3
996, 3, 1.0, 14, 3, -0.5, 15, 3, -0.5
*EQUATION
3
1003, 1, 1.0, 15, 1, -0.5, 104, 1, -0.5
*EQUATION
3
1003, 2, 1.0, 15, 2, -0.5, 104, 2, -0.5
*EQUATION
3
1003, 3, 1.0, 15, 3, -0.5, 104, 3, -0.5
*EQUATION
3
1004, 1, 1.0, 101, 1, -0.5, 103, 1, -0.5
*EQUATION
3
1004, 2, 1.0, 101, 2, -0.5, 103, 2, -0.5
*EQUATION
3
1004, 3, 1.0, 101, 3, -0.5, 103, 3, -0.5
*EQUATION
5
1005, 1, 1.0, 101, 1, -0.25, 102, 1, -0.25, 104, 1, -0.25, 103, 1, -0.25
*EQUATION
5
1005, 2, 1.0, 101, 2, -0.25, 102, 2, -0.25, 104, 2, -0.25, 103, 2, -0.25
*EQUATION
5
1005, 3, 1.0, 101, 3, -0.25, 102, 3, -0.25, 104, 3, -0.25, 103, 3, -0.25
*EQUATION
3
1006, 1, 1.0, 103, 1, -0.5, 104, 1, -0.5
*EQUATION
3
1006, 2, 1.0, 103, 2, -0.5, 104, 2, -0.5
*EQUATION
3
1006, 3, 1.0, 103, 3, -0.5, 104, 3, -0.5
*EQUATION
3
1007, 1, 1.0, 102, 1, -0.5, 104, 1, -0.5
*EQUATION
3
1007, 2, 1.0, 102, 2, -0.5, 104, 2, -0.5
*EQUATION
3
1007, 3, 1.0, 102, 3, -0.5, 104, 3, -0.5
*EQUATION
3
1008, 1, 1.0, 18, 1, -0.5, 22, 1, -0.5
*EQUATION
3
1008, 2, 1.0, 18, 2, -0.5, 22, 2, -0.5
*EQUATION
3
1008, 3, 1.0, 18, 3, -0.5, 22, 3, -0.5
*EQUATION
3
1009, 1, 1.0, 18, 1, -0.5, 19, 1, -0.5
*EQUATION
3
1009, 2, 1.0, 18, 2, -0.5, 19, 2, -0.5
*EQUATION
3
1009, 3, 1.0, 18, 3, -0.5, 19, 3, -0.5
*EQUATION
5
1010, 1, 1.0, 18, 1, -0.25, 19, 1, -0.25, 23, 1, -0.25, 22, 1, -0.25
*EQUATION
5
1010, 2, 1.0, 18, 2, -0.25, 19, 2, -0.25, 23, 2, -0.25, 22, 2, -0.25
*EQUATION
5
1010, 3, 1.0, 18, 3, -0.25, 19, 3, -0.25, 23, 3, -0.25, 22, 3, -0.25
*EQUATION
3
1011, 1, 1.0, 22, 1, -0.5, 23, 1, -0.5
*EQUATION
3
1011, 2, 1.0, 22, 2, -0.5, 23, 2, -0.5
*EQUATION
3
1011, 3, 1.0, 22, 3, -0.5, 23, 3, -0.5
*EQUATION
3
1012, 1, 1.0, 19, 1, -0.5, 23, 1, -0.5
*EQUATION
3
1012, 2, 1.0, 19, 2, -0.5, 23, 2, -0.5
*EQUATION
3
1012, 3, 1.0, 19, 3, -0.5, 23, 3, -0.5
*EQUATION
3
1019, 1, 1.0, 19, 1, -0.5, 106, 1, -0.5
*EQUATION
3
1019, 2, 1.0, 19, 2, -0.5, 106, 2, -0.5
*EQUATION
3
1019, 3, 1.0, 19, 3, -0.5, 106, 3, -0.5
*EQUATION
3
1021, 1, 1.0, 23, 1, -0.5, 108, 1, -0.5
*EQUATION
3
1021, 2, 1.0, 23, 2, -0.5, 108, 2, -0.5
*EQUATION
3
1021, 3, 1.0, 23, 3, -0.5, 108, 3, -0.5
*EQUATION
3
1022, 1, 1.0, 105, 1, -0.5, 107, 1, -0.5
*EQUATION
3
1022, 2, 1.0, 105, 2, -0.5, 107, 2, -0.5
*EQUATION
3
1022, 3, 1.0, 105, 3, -0.5, 107, 3, -0.5
*EQUATION
3
1023, 1, 1.0, 105, 1, -0.5, 106, 1, -0.5
*EQUATION
3
1023, 2, 1.0, 105, 2, -0.5, 106, 2, -0.5
*EQUATION
3
1023, 3, 1.0, 105, 3, -0.5, 106, 3, -0.5
*EQUATION
5
1024, 1, 1.0, 105, 1, -0.25, 106, 1, -0.25, 108, 1, -0.25, 107, 1, -0.25
*EQUATION
5
1024, 2, 1.0, 105, 2, -0.25, 106, 2, -0.25, 108, 2, -0.25, 107, 2, -0.25
*EQUATION
5
1024, 3, 1.0, 105, 3, -0.25, 106, 3, -0.25, 108, 3, -0.25, 107, 3, -0.25
*EQUATION
3
1025, 1, 1.0, 107, 1, -0.5, 108, 1, -0.5
*EQUATION
3
1025, 2, 1.0, 107, 2, -0.5, 108, 2, -0.5
*EQUATION
3
1025, 3, 1.0, 107, 3, -0.5, 108, 3, -0.5
*EQUATION
3
1026, 1, 1.0, 106, 1, -0.5, 108, 1, -0.5
*EQUATION
3
1026, 2, 1.0, 106, 2, -0.5, 108, 2, -0.5
*EQUATION
3
1026, 3, 1.0, 106, 3, -0.5, 108, 3, -0.5
*EQUATION
3
1042, 1, 1.0, 102, 1, -0.5, 111, 1, -0.5
*EQUATION
3
1042, 2, 1.0, 102, 2, -0.5, 111, 2, -0.5
*EQUATION
3
1042, 3, 1.0, 102, 3, -0.5, 111, 3, -0.5
*EQUATION
3
1045, 1, 1.0, 15, 1, -0.5, 31, 1, -0.5
*EQUATION
3
1045, 2, 1.0, 15, 2, -0.5, 31, 2, -0.5
*EQUATION
3
1045, 3, 1.0, 15, 3, -0.5, 31, 3, -0.5
*EQUATION
5
1048, 1, 1.0, 15, 1, -0.25, 104, 1, -0.25, 112, 1, -0.25, 31, 1, -0.25
*EQUATION
5
1048, 2, 1.0, 15, 2, -0.25, 104, 2, -0.25, 112, 2, -0.25, 31, 2, -0.25
*EQUATION
5
1048, 3, 1.0, 15, 3, -0.25, 104, 3, -0.25, 112, 3, -0.25, 31, 3, -0.25
*EQUATION
3
1050, 1, 1.0, 31, 1, -0.5, 112, 1, -0.5
*EQUATION
3
1050, 2, 1.0, 31, 2, -0.5, 112, 2, -0.5
*EQUATION
3
1050, 3, 1.0, 31, 3, -0.5, 112, 3, -0.5
*EQUATION
5
1051, 1, 1.0, 102, 1, -0.25, 111, 1, -0.25, 112, 1, -0.25, 104, 1, -0.25
*EQUATION
5
1051, 2, 1.0, 102, 2, -0.25, 111, 2, -0.25, 112, 2, -0.25, 104, 2, -0.25
*EQUATION
5
1051, 3, 1.0, 102, 3, -0.25, 111, 3, -0.25, 112, 3, -0.25, 104, 3, -0.25
*EQUATION
3
1052, 1, 1.0, 104, 1, -0.5, 112, 1, -0.5
*EQUATION
3
1052, 2, 1.0, 104, 2, -0.5, 112, 2, -0.5
*EQUATION
3
1052, 3, 1.0, 104, 3, -0.5, 112, 3, -0.5
*EQUATION
3
1053, 1, 1.0, 111, 1, -0.5, 112, 1, -0.5
*EQUATION
3
1053, 2, 1.0, 111, 2, -0.5, 112, 2, -0.5
*EQUATION
3
1053, 3, 1.0, 111, 3, -0.5, 112, 3, -0.5
*EQUATION
3
1054, 1, 1.0, 42, 1, -0.5, 46, 1, -0.5
*EQUATION
3
1054, 2, 1.0, 42, 2, -0.5, 46, 2, -0.5
*EQUATION
3
1054, 3, 1.0, 42, 3, -0.5, 46, 3, -0.5
*EQUATION
3
1055, 1, 1.0, 42, 1, -0.5, 43, 1, -0.5
*EQUATION
3
1055, 2, 1.0, 42, 2, -0.5, 43, 2, -0.5
*EQUATION
3
1055, 3, 1.0, 42, 3, -0.5, 43, 3, -0.5
*EQUATION
5
1056, 1, 1.0, 42, 1, -0.25, 43, 1, -0.25, 47, 1, -0.25, 46, 1, -0.25
*EQUATION
5
1056, 2, 1.0, 42, 2, -0.25, 43, 2, -0.25, 47, 2, -0.25, 46, 2, -0.25
*EQUATION
5
1056, 3, 1.0, 42, 3, -0.25, 43, 3, -0.25, 47, 3, -0.25, 46, 3, -0.25
*EQUATION
3
1057, 1, 1.0, 46, 1, -0.5, 47, 1, -0.5
*EQUATION
3
1057, 2, 1.0, 46, 2, -0.5, 47, 2, -0.5
*EQUATION
3
1057, 3, 1.0, 46, 3, -0.5, 47, 3, -0.5
*EQUATION
3
1058, 1, 1.0, 43, 1, -0.5, 47, 1, -0.5
*EQUATION
3
1058, 2, 1.0, 43, 2, -0.5, 47, 2, -0.5
*EQUATION
3
1058, 3, 1.0, 43, 3, -0.5, 47, 3, -0.5
*EQUATION
3
1068, 1, 1.0, 117, 1, -0.5, 119, 1, -0.5
*EQUATION
3
1068, 2, 1.0, 117, 2, -0.5, 119, 2, -0.5
*EQUATION
3
1068, 3, 1.0, 117, 3, -0.5, 119, 3, -0.5
*EQUATION
3
1069, 1, 1.0, 117, 1, -0.5, 118, 1, -0.5
*EQUATION
3
1069, 2, 1.0, 117, 2, -0.5, 118, 2, -0.5
*EQUATION
3
1069, 3, 1.0, 117, 3, -0.5, 118, 3, -0.5
*EQUATION
5
1070, 1, 1.0, 117, 1, -0.25, 118, 1, -0.25, 120, 1, -0.25, 119, 1, -0.25
*EQUATION
5
1070, 2, 1.0, 117, 2, -0.25, 118, 2, -0.25, 120, 2, -0.25, 119, 2, -0.25
*EQUATION
5
1070, 3, 1.0, 117, 3, -0.25, 118, 3, -0.25, 120, 3, -0.25, 119, 3, -0.25
*EQUATION
3
1071, 1, 1.0, 119, 1, -0.5, 120, 1, -0.5
*EQUATION
3
1071, 2, 1.0, 119, 2, -0.5, 120, 2, -0.5
*EQUATION
3
1071, 3, 1.0, 119, 3, -0.5, 120, 3, -0.5
*EQUATION
3
1072, 1, 1.0, 118, 1, -0.5, 120, 1, -0.5
*EQUATION
3
1072, 2, 1.0, 118, 2, -0.5, 120, 2, -0.5
*EQUATION
3
1072, 3, 1.0, 118, 3, -0.5, 120, 3, -0.5
*EQUATION
3
1073, 1, 1.0, 43, 1, -0.5, 51, 1, -0.5
*EQUATION
3
1073, 2, 1.0, 43, 2, -0.5, 51, 2, -0.5
*EQUATION
3
1073, 3, 1.0, 43, 3, -0.5, 51, 3, -0.5
*EQUATION
5
1074, 1, 1.0, 43, 1, -0.25, 51, 1, -0.25, 53, 1, -0.25, 47, 1, -0.25
*EQUATION
5
1074, 2, 1.0, 43, 2, -0.25, 51, 2, -0.25, 53, 2, -0.25, 47, 2, -0.25
*EQUATION
5
1074, 3, 1.0, 43, 3, -0.25, 51, 3, -0.25, 53, 3, -0.25, 47, 3, -0.25
*EQUATION
3
1075, 1, 1.0, 47, 1, -0.5, 53, 1, -0.5
*EQUATION
3
1075, 2, 1.0, 47, 2, -0.5, 53, 2, -0.5
*EQUATION
3
1075, 3, 1.0, 47, 3, -0.5, 53, 3, -0.5
*EQUATION
3
1076, 1, 1.0, 51, 1, -0.5, 53, 1, -0.5
*EQUATION
3
1076, 2, 1.0, 51, 2, -0.5, 53, 2, -0.5
*EQUATION
3
1076, 3, 1.0, 51, 3, -0.5, 53, 3, -0.5
*EQUATION
3
1083, 1, 1.0, 118, 1, -0.5, 122, 1, -0.5
*EQUATION
3
1083, 2, 1.0, 118, 2, -0.5, 122, 2, -0.5
*EQUATION
3
1083, 3, 1.0, 118, 3, -0.5, 122, 3, -0.5
*EQUATION
5
1084, 1, 1.0, 118, 1, -0.25, 122, 1, -0.25, 123, 1, -0.25, 120, 1, -0.25
*EQUATION
5
1084, 2, 1.0, 118, 2, -0.25, 122, 2, -0.25, 123, 2, -0.25, 120, 2, -0.25
*EQUATION
5
1084, 3, 1.0, 118, 3, -0.25, 122, 3, -0.25, 123, 3, -0.25, 120, 3, -0.25
*EQUATION
3
1085, 1, 1.0, 120, 1, -0.5, 123, 1, -0.5
*EQUATION
3
1085, 2, 1.0, 120, 2, -0.5, 123, 2, -0.5
*EQUATION
3
1085, 3, 1.0, 120, 3, -0.5, 123, 3, -0.5
*EQUATION
3
1086, 1, 1.0, 122, 1, -0.5, 123, 1, -0.5
*EQUATION
3
1086, 2, 1.0, 122, 2, -0.5, 123, 2, -0.5
*EQUATION
3
1086, 3, 1.0, 122, 3, -0.5, 123, 3, -0.5
*EQUATION
3
1087, 1, 1.0, 51, 1, -0.5, 57, 1, -0.5
*EQUATION
3
1087, 2, 1.0, 51, 2, -0.5, 57, 2, -0.5
*EQUATION
3
1087, 3, 1.0, 51, 3, -0.5, 57, 3, -0.5
*EQUATION
5
1088, 1, 1.0, 51, 1, -0.25, 57, 1, -0.25, 59, 1, -0.25, 53, 1, -0.25
*EQUATION
5
1088, 2, 1.0, 51, 2, -0.25, 57, 2, -0.25, 59, 2, -0.25, 53, 2, -0.25
*EQUATION
5
1088, 3, 1.0, 51, 3, -0.25, 57, 3, -0.25, 59, 3, -0.25, 53, 3, -0.25
*EQUATION
3
1089, 1, 1.0, 53, 1, -0.5, 59, 1, -0.5
*EQUATION
3
1089, 2, 1.0, 53, 2, -0.5, 59, 2, -0.5
*EQUATION
3
1089, 3, 1.0, 53, 3, -0.5, 59, 3, -0.5
*EQUATION
3
1090, 1, 1.0, 57, 1, -0.5, 59, 1, -0.5
*EQUATION
3
1090, 2, 1.0, 57, 2, -0.5, 59, 2, -0.5
*EQUATION
3
1090, 3, 1.0, 57, 3, -0.5, 59, 3, -0.5
*EQUATION
3
1097, 1, 1.0, 122, 1, -0.5, 125, 1, -0.5
*EQUATION
3
1097, 2, 1.0, 122, 2, -0.5, 125, 2, -0.5
*EQUATION
3
1097, 3, 1.0, 122, 3, -0.5, 125, 3, -0.5
*EQUATION
5
1098, 1, 1.0, 122, 1, -0.25, 125, 1, -0.25, 126, 1, -0.25, 123, 1, -0.25
*EQUATION
5
1098, 2, 1.0, 122, 2, -0.25, 125, 2, -0.25, 126, 2, -0.25, 123, 2, -0.25
*EQUATION
5
1098, 3, 1.0, 122, 3, -0.25, 125, 3, -0.25, 126, 3, -0.25, 123, 3, -0.25
*EQUATION
3
1099, 1, 1.0, 123, 1, -0.5, 126, 1, -0.5
*EQUATION
3
1099, 2, 1.0, 123, 2, -0.5, 126, 2, -0.5
*EQUATION
3
1099, 3, 1.0, 123, 3, -0.5, 126, 3, -0.5
*EQUATION
3
1100, 1, 1.0, 125, 1, -0.5, 126, 1, -0.5
*EQUATION
3
1100, 2, 1.0, 125, 2, -0.5, 126, 2, -0.5
*EQUATION
3
1100, 3, 1.0, 125, 3, -0.5, 126, 3, -0.5
*EQUATION
3
1101, 1, 1.0, 57, 1, -0.5, 61, 1, -0.5
*EQUATION
3
1101, 2, 1.0, 57, 2, -0.5, 61, 2, -0.5
*EQUATION
3
1101, 3, 1.0, 57, 3, -0.5, 61, 3, -0.5
*EQUATION
5
1102, 1, 1.0, 57, 1, -0.25, 61, 1, -0.25, 63, 1, -0.25, 59, 1, -0.25
*EQUATION
5
1102, 2, 1.0, 57, 2, -0.25, 61, 2, -0.25, 63, 2, -0.25, 59, 2, -0.25
*EQUATION
5
1102, 3, 1.0, 57, 3, -0.25, 61, 3, -0.25, 63, 3, -0.25, 59, 3, -0.25
*EQUATION
3
1103, 1, 1.0, 59, 1, -0.5, 63, 1, -0.5
*EQUATION
3
1103, 2, 1.0, 59, 2, -0.5, 63, 2, -0.5
*EQUATION
3
1103, 3, 1.0, 59, 3, -0.5, 63, 3, -0.5
*EQUATION
3
1104, 1, 1.0, 61, 1, -0.5, 63, 1, -0.5
*EQUATION
3
1104, 2, 1.0, 61, 2, -0.5, 63, 2, -0.5
*EQUATION
3
1104, 3, 1.0, 61, 3, -0.5, 63, 3, -0.5
*EQUATION
3
1111, 1, 1.0, 125, 1, -0.5, 127, 1, -0.5
*EQUATION
3
1111, 2, 1.0, 125, 2, -0.5, 127, 2, -0.5
*EQUATION
3
1111, 3, 1.0, 125, 3, -0.5, 127, 3, -0.5
*EQUATION
5
1112, 1, 1.0, 125, 1, -0.25, 127, 1, -0.25, 128, 1, -0.25, 126, 1, -0.25
*EQUATION
5
1112, 2, 1.0, 125, 2, -0.25, 127, 2, -0.25, 128, 2, -0.25, 126, 2, -0.25
*EQUATION
5
1112, 3, 1.0, 125, 3, -0.25, 127, 3, -0.25, 128, 3, -0.25, 126, 3, -0.25
*EQUATION
3
1113, 1, 1.0, 126, 1, -0.5, 128, 1, -0.5
*EQUATION
3
1113, 2, 1.0, 126, 2, -0.5, 128, 2, -0.5
*EQUATION
3
1113, 3, 1.0, 126, 3, -0.5, 128, 3, -0.5
*EQUATION
3
1114, 1, 1.0, 127, 1, -0.5, 128, 1, -0.5
*EQUATION
3
1114, 2, 1.0, 127, 2, -0.5, 128, 2, -0.5
*EQUATION
3
1114, 3, 1.0, 127, 3, -0.5, 128, 3, -0.5
*EQUATION
3
1115, 1, 1.0, 69, 1, -0.5, 71, 1, -0.5
*EQUATION
3
1115, 2, 1.0, 69, 2, -0.5, 71, 2, -0.5
*EQUATION
3
1115, 3, 1.0, 69, 3, -0.5, 71, 3, -0.5
*EQUATION
3
1116, 1, 1.0, 69, 1, -0.5, 75, 1, -0.5
*EQUATION
3
1116, 2, 1.0, 69, 2, -0.5, 75, 2, -0.5
*EQUATION
3
1116, 3, 1.0, 69, 3, -0.5, 75, 3, -0.5
*EQUATION
5
1117, 1, 1.0, 69, 1, -0.25, 75, 1, -0.25, 77, 1, -0.25, 71, 1, -0.25
*EQUATION
5
1117, 2, 1.0, 69, 2, -0.25, 75, 2, -0.25, 77, 2, -0.25, 71, 2, -0.25
*EQUATION
5
1117, 3, 1.0, 69, 3, -0.25, 75, 3, -0.25, 77, 3, -0.25, 71, 3, -0.25
*EQUATION
3
1118, 1, 1.0, 71, 1, -0.5, 77, 1, -0.5
*EQUATION
3
1118, 2, 1.0, 71, 2, -0.5, 77, 2, -0.5
*EQUATION
3
1118, 3, 1.0, 71, 3, -0.5, 77, 3, -0.5
*EQUATION
3
1119, 1, 1.0, 75, 1, -0.5, 77, 1, -0.5
*EQUATION
3
1119, 2, 1.0, 75, 2, -0.5, 77, 2, -0.5
*EQUATION
3
1119, 3, 1.0, 75, 3, -0.5, 77, 3, -0.5
*EQUATION
3
1120, 1, 1.0, 69, 1, -0.5, 131, 1, -0.5
*EQUATION
3
1120, 2, 1.0, 69, 2, -0.5, 131, 2, -0.5
*EQUATION
3
1120, 3, 1.0, 69, 3, -0.5, 131, 3, -0.5
*EQUATION
3
1129, 1, 1.0, 131, 1, -0.5, 132, 1, -0.5
*EQUATION
3
1129, 2, 1.0, 131, 2, -0.5, 132, 2, -0.5
*EQUATION
3
1129, 3, 1.0, 131, 3, -0.5, 132, 3, -0.5
*EQUATION
3
1130, 1, 1.0, 131, 1, -0.5, 134, 1, -0.5
*EQUATION
3
1130, 2, 1.0, 131, 2, -0.5, 134, 2, -0.5
*EQUATION
3
1130, 3, 1.0, 131, 3, -0.5, 134, 3, -0.5
*EQUATION
5
1131, 1, 1.0, 131, 1, -0.25, 134, 1, -0.25, 135, 1, -0.25, 132, 1, -0.25
*EQUATION
5
1131, 2, 1.0, 131, 2, -0.25, 134, 2, -0.25, 135, 2, -0.25, 132, 2, -0.25
*EQUATION
5
1131, 3, 1.0, 131, 3, -0.25, 134, 3, -0.25, 135, 3, -0.25, 132, 3, -0.25
*EQUATION
3
1132, 1, 1.0, 132, 1, -0.5, 135, 1, -0.5
*EQUATION
3
1132, 2, 1.0, 132, 2, -0.5, 135, 2, -0.5
*EQUATION
3
1132, 3, 1.0, 132, 3, -0.5, 135, 3, -0.5
*EQUATION
3
1133, 1, 1.0, 134, 1, -0.5, 135, 1, -0.5
*EQUATION
3
1133, 2, 1.0, 134, 2, -0.5, 135, 2, -0.5
*EQUATION
3
1133, 3, 1.0, 134, 3, -0.5, 135, 3, -0.5
*EQUATION
3
1134, 1, 1.0, 75, 1, -0.5, 81, 1, -0.5
*EQUATION
3
1134, 2, 1.0, 75, 2, -0.5, 81, 2, -0.5
*EQUATION
3
1134, 3, 1.0, 75, 3, -0.5, 81, 3, -0.5
*EQUATION
5
1135, 1, 1.0, 75, 1, -0.25, 81, 1, -0.25, 83, 1, -0.25, 77, 1, -0.25
*EQUATION
5
1135, 2, 1.0, 75, 2, -0.25, 81, 2, -0.25, 83, 2, -0.25, 77, 2, -0.25
*EQUATION
5
1135, 3, 1.0, 75, 3, -0.25, 81, 3, -0.25, 83, 3, -0.25, 77, 3, -0.25
*EQUATION
3
1136, 1, 1.0, 77, 1, -0.5, 83, 1, -0.5
*EQUATION
3
1136, 2, 1.0, 77, 2, -0.5, 83, 2, -0.5
*EQUATION
3
1136, 3, 1.0, 77, 3, -0.5, 83, 3, -0.5
*EQUATION
3
1137, 1, 1.0, 81, 1, -0.5, 83, 1, -0.5
*EQUATION
3
1137, 2, 1.0, 81, 2, -0.5, 83, 2, -0.5
*EQUATION
3
1137, 3, 1.0, 81, 3, -0.5, 83, 3, -0.5
*EQUATION
3
1144, 1, 1.0, 134, 1, -0.5, 137, 1, -0.5
*EQUATION
3
1144, 2, 1.0, 134, 2, -0.5, 137, 2, -0.5
*EQUATION
3
1144, 3, 1.0, 134, 3, -0.5, 137, 3, -0.5
*EQUATION
5
1145, 1, 1.0, 134, 1, -0.25, 137, 1, -0.25, 138, 1, -0.25, 135, 1, -0.25
*EQUATION
5
1145, 2, 1.0, 134, 2, -0.25, 137, 2, -0.25, 138, 2, -0.25, 135, 2, -0.25
*EQUATION
5
1145, 3, 1.0, 134, 3, -0.25, 137, 3, -0.25, 138, 3, -0.25, 135, 3, -0.25
*EQUATION
3
1146, 1, 1.0, 135, 1, -0.5, 138, 1, -0.5
*EQUATION
3
1146, 2, 1.0, 135, 2, -0.5, 138, 2, -0.5
*EQUATION
3
1146, 3, 1.0, 135, 3, -0.5, 138, 3, -0.5
*EQUATION
3
1147, 1, 1.0, 137, 1, -0.5, 138, 1, -0.5
*EQUATION
3
1147, 2, 1.0, 137, 2, -0.5, 138, 2, -0.5
*EQUATION
3
1147, 3, 1.0, 137, 3, -0.5, 138, 3, -0.5
*EQUATION
3
1148, 1, 1.0, 81, 1, -0.5, 87, 1, -0.5
*EQUATION
3
1148, 2, 1.0, 81, 2, -0.5, 87, 2, -0.5
*EQUATION
3
1148, 3, 1.0, 81, 3, -0.5, 87, 3, -0.5
*EQUATION
5
1149, 1, 1.0, 81, 1, -0.25, 87, 1, -0.25, 89, 1, -0.25, 83, 1, -0.25
*EQUATION
5
1149, 2, 1.0, 81, 2, -0.25, 87, 2, -0.25, 89, 2, -0.25, 83, 2, -0.25
*EQUATION
5
1149, 3, 1.0, 81, 3, -0.25, 87, 3, -0.25, 89, 3, -0.25, 83, 3, -0.25
*EQUATION
3
1150, 1, 1.0, 83, 1, -0.5, 89, 1, -0.5
*EQUATION
3
1150, 2, 1.0, 83, 2, -0.5, 89, 2, -0.5
*EQUATION
3
1150, 3, 1.0, 83, 3, -0.5, 89, 3, -0.5
*EQUATION
3
1151, 1, 1.0, 87, 1, -0.5, 89, 1, -0.5
*EQUATION
3
1151, 2, 1.0, 87, 2, -0.5, 89, 2, -0.5
*EQUATION
3
1151, 3, 1.0, 87, 3, -0.5, 89, 3, -0.5
*EQUATION
3
1158, 1, 1.0, 137, 1, -0.5, 140, 1, -0.5
*EQUATION
3
1158, 2, 1.0, 137, 2, -0.5, 140, 2, -0.5
*EQUATION
3
1158, 3, 1.0, 137, 3, -0.5, 140, 3, -0.5
*EQUATION
5
1159, 1, 1.0, 137, 1, -0.25, 140, 1, -0.25, 141, 1, -0.25, 138, 1, -0.25
*EQUATION
5
1159, 2, 1.0, 137, 2, -0.25, 140, 2, -0.25, 141, 2, -0.25, 138, 2, -0.25
*EQUATION
5
1159, 3, 1.0, 137, 3, -0.25, 140, 3, -0.25, 141, 3, -0.25, 138, 3, -0.25
*EQUATION
3
1160, 1, 1.0, 138, 1, -0.5, 141, 1, -0.5
*EQUATION
3
1160, 2, 1.0, 138, 2, -0.5, 141, 2, -0.5
*EQUATION
3
1160, 3, 1.0, 138, 3, -0.5, 141, 3, -0.5
*EQUATION
3
1161, 1, 1.0, 140, 1, -0.5, 141, 1, -0.5
*EQUATION
3
1161, 2, 1.0, 140, 2, -0.5, 141, 2, -0.5
*EQUATION
3
1161, 3, 1.0, 140, 3, -0.5, 141, 3, -0.5
*EQUATION
3
1162, 1, 1.0, 87, 1, -0.5, 93, 1, -0.5
*EQUATION
3
1162, 2, 1.0, 87, 2, -0.5, 93, 2, -0.5
*EQUATION
3
1162, 3, 1.0, 87, 3, -0.5, 93, 3, -0.5
*EQUATION
5
1163, 1, 1.0, 87, 1, -0.25, 93, 1, -0.25, 95, 1, -0.25, 89, 1, -0.25
*EQUATION
5
1163, 2, 1.0, 87, 2, -0.25, 93, 2, -0.25, 95, 2, -0.25, 89, 2, -0.25
*EQUATION
5
1163, 3, 1.0, 87, 3, -0.25, 93, 3, -0.25, 95, 3, -0.25, 89, 3, -0.25
*EQUATION
3
1164, 1, 1.0, 89, 1, -0.5, 95, 1, -0.5
*EQUATION
3
1164, 2, 1.0, 89, 2, -0.5, 95, 2, -0.5
*EQUATION
3
1164, 3, 1.0, 89, 3, -0.5, 95, 3, -0.5
*EQUATION
3
1165, 1, 1.0, 93, 1, -0.5, 95, 1, -0.5
*EQUATION
3
1165, 2, 1.0, 93, 2, -0.5, 95, 2, -0.5
*EQUATION
3
1165, 3, 1.0, 93, 3, -0.5, 95, 3, -0.5
*EQUATION
3
1172, 1, 1.0, 140, 1, -0.5, 143, 1, -0.5
*EQUATION
3
1172, 2, 1.0, 140, 2, -0.5, 143, 2, -0.5
*EQUATION
3
1172, 3, 1.0, 140, 3, -0.5, 143, 3, -0.5
*EQUATION
5
1173, 1, 1.0, 140, 1, -0.25, 143, 1, -0.25, 144, 1, -0.25, 141, 1, -0.25
*EQUATION
5
1173, 2, 1.0, 140, 2, -0.25, 143, 2, -0.25, 144, 2, -0.25, 141, 2, -0.25
*EQUATION
5
1173, 3, 1.0, 140, 3, -0.25, 143, 3, -0.25, 144, 3, -0.25, 141, 3, -0.25
*EQUATION
3
1174, 1, 1.0, 141, 1, -0.5, 144, 1, -0.5
*EQUATION
3
1174, 2, 1.0, 141, 2, -0.5, 144, 2, -0.5
*EQUATION
3
1174, 3, 1.0, 141, 3, -0.5, 144, 3, -0.5
*EQUATION
3
1175, 1, 1.0, 143, 1, -0.5, 144, 1, -0.5
*EQUATION
3
1175, 2, 1.0, 143, 2, -0.5, 144, 2, -0.5
*EQUATION
3
1175, 3, 1.0, 143, 3, -0.5, 144, 3, -0.5
*EQUATION
3
1284, 1, 1.0, 339, 1, -0.5, 340, 1, -0.5
*EQUATION
3
1284, 2, 1.0, 339, 2, -0.5, 340, 2, -0.5
*EQUATION
3
1284, 3, 1.0, 339, 3, -0.5, 340, 3, -0.5
*EQUATION
3
1294, 1, 1.0, 340, 1, -0.5, 350, 1, -0.5
*EQUATION
3
1294, 2, 1.0, 340, 2, -0.5, 350, 2, -0.5
*EQUATION
3
1294, 3, 1.0, 340, 3, -0.5, 350, 3, -0.5
*EQUATION
3
1298, 1, 1.0, 339, 1, -0.5, 387, 1, -0.5
*EQUATION
3
1298, 2, 1.0, 339, 2, -0.5, 387, 2, -0.5
*EQUATION
3
1298, 3, 1.0, 339, 3, -0.5, 387, 3, -0.5
*EQUATION
5
1301, 1, 1.0, 339, 1, -0.25, 387, 1, -0.25, 388, 1, -0.25, 340, 1, -0.25
*EQUATION
5
1301, 2, 1.0, 339, 2, -0.25, 387, 2, -0.25, 388, 2, -0.25, 340, 2, -0.25
*EQUATION
5
1301, 3, 1.0, 339, 3, -0.25, 387, 3, -0.25, 388, 3, -0.25, 340, 3, -0.25
*EQUATION
3
1304, 1, 1.0, 340, 1, -0.5, 388, 1, -0.5
*EQUATION
3
1304, 2, 1.0, 340, 2, -0.5, 388, 2, -0.5
*EQUATION
3
1304, 3, 1.0, 340, 3, -0.5, 388, 3, -0.5
*EQUATION
3
1308, 1, 1.0, 387, 1, -0.5, 388, 1, -0.5
*EQUATION
3
1308, 2, 1.0, 387, 2, -0.5, 388, 2, -0.5
*EQUATION
3
1308, 3, 1.0, 387, 3, -0.5, 388, 3, -0.5
*EQUATION
5
1312, 1, 1.0, 340, 1, -0.25, 388, 1, -0.25, 398, 1, -0.25, 350, 1, -0.25
*EQUATION
5
1312, 2, 1.0, 340, 2, -0.25, 388, 2, -0.25, 398, 2, -0.25, 350, 2, -0.25
*EQUATION
5
1312, 3, 1.0, 340, 3, -0.25, 388, 3, -0.25, 398, 3, -0.25, 350, 3, -0.25
*EQUATION
3
1315, 1, 1.0, 350, 1, -0.5, 398, 1, -0.5
*EQUATION
3
1315, 2, 1.0, 350, 2, -0.5, 398, 2, -0.5
*EQUATION
3
1315, 3, 1.0, 350, 3, -0.5, 398, 3, -0.5
*EQUATION
3
1318, 1, 1.0, 388, 1, -0.5, 398, 1, -0.5
*EQUATION
3
1318, 2, 1.0, 388, 2, -0.5, 398, 2, -0.5
*EQUATION
3
1318, 3, 1.0, 388, 3, -0.5, 398, 3, -0.5
*EQUATION
3
1320, 1, 1.0, 844, 1, -0.5, 845, 1, -0.5
*EQUATION
3
1320, 2, 1.0, 844, 2, -0.5, 845, 2, -0.5
*EQUATION
3
1320, 3, 1.0, 844, 3, -0.5, 845, 3, -0.5
*EQUATION
3
1321, 1, 1.0, 827, 1, -0.5, 844, 1, -0.5
*EQUATION
3
1321, 2, 1.0, 827, 2, -0.5, 844, 2, -0.5
*EQUATION
3
1321, 3, 1.0, 827, 3, -0.5, 844, 3, -0.5
*EQUATION
5
1322, 1, 1.0, 844, 1, -0.25, 827, 1, -0.25, 847, 1, -0.25, 845, 1, -0.25
*EQUATION
5
1322, 2, 1.0, 844, 2, -0.25, 827, 2, -0.25, 847, 2, -0.25, 845, 2, -0.25
*EQUATION
5
1322, 3, 1.0, 844, 3, -0.25, 827, 3, -0.25, 847, 3, -0.25, 845, 3, -0.25
*EQUATION
3
1323, 1, 1.0, 845, 1, -0.5, 847, 1, -0.5
*EQUATION
3
1323, 2, 1.0, 845, 2, -0.5, 847, 2, -0.5
*EQUATION
3
1323, 3, 1.0, 845, 3, -0.5, 847, 3, -0.5
*EQUATION
3
1324, 1, 1.0, 827, 1, -0.5, 847, 1, -0.5
*EQUATION
3
1324, 2, 1.0, 827, 2, -0.5, 847, 2, -0.5
*EQUATION
3
1324, 3, 1.0, 827, 3, -0.5, 847, 3, -0.5
*EQUATION
3
1325, 1, 1.0, 844, 1, -0.5, 892, 1, -0.5
*EQUATION
3
1325, 2, 1.0, 844, 2, -0.5, 892, 2, -0.5
*EQUATION
3
1325, 3, 1.0, 844, 3, -0.5, 892, 3, -0.5
*EQUATION
5
1326, 1, 1.0, 844, 1, -0.25, 892, 1, -0.25, 893, 1, -0.25, 845, 1, -0.25
*EQUATION
5
1326, 2, 1.0, 844, 2, -0.25, 892, 2, -0.25, 893, 2, -0.25, 845, 2, -0.25
*EQUATION
5
1326, 3, 1.0, 844, 3, -0.25, 892, 3, -0.25, 893, 3, -0.25, 845, 3, -0.25
*EQUATION
3
1327, 1, 1.0, 845, 1, -0.5, 893, 1, -0.5
*EQUATION
3
1327, 2, 1.0, 845, 2, -0.5, 893, 2, -0.5
*EQUATION
3
1327, 3, 1.0, 845, 3, -0.5, 893, 3, -0.5
*EQUATION
5
1330, 1, 1.0, 845, 1, -0.25, 893, 1, -0.25, 895, 1, -0.25, 847, 1, -0.25
*EQUATION
5
1330, 2, 1.0, 845, 2, -0.25, 893, 2, -0.25, 895, 2, -0.25, 847, 2, -0.25
*EQUATION
5
1330, 3, 1.0, 845, 3, -0.25, 893, 3, -0.25, 895, 3, -0.25, 847, 3, -0.25
*EQUATION
3
1331, 1, 1.0, 827, 1, -0.5, 875, 1, -0.5
*EQUATION
3
1331, 2, 1.0, 827, 2, -0.5, 875, 2, -0.5
*EQUATION
3
1331, 3, 1.0, 827, 3, -0.5, 875, 3, -0.5
*EQUATION
5
1332, 1, 1.0, 827, 1, -0.25, 875, 1, -0.25, 895, 1, -0.25, 847, 1, -0.25
*EQUATION
5
1332, 2, 1.0, 827, 2, -0.25, 875, 2, -0.25, 895, 2, -0.25, 847, 2, -0.25
*EQUATION
5
1332, 3, 1.0, 827, 3, -0.25, 875, 3, -0.25, 895, 3, -0.25, 847, 3, -0.25
*EQUATION
3
1333, 1, 1.0, 847, 1, -0.5, 895, 1, -0.5
*EQUATION
3
1333, 2, 1.0, 847, 2, -0.5, 895, 2, -0.5
*EQUATION
3
1333, 3, 1.0, 847, 3, -0.5, 895, 3, -0.5
*EQUATION
3
1334, 1, 1.0, 892, 1, -0.5, 893, 1, -0.5
*EQUATION
3
1334, 2, 1.0, 892, 2, -0.5, 893, 2, -0.5
*EQUATION
3
1334, 3, 1.0, 892, 3, -0.5, 893, 3, -0.5
*EQUATION
3
1337, 1, 1.0, 893, 1, -0.5, 895, 1, -0.5
*EQUATION
3
1337, 2, 1.0, 893, 2, -0.5, 895, 2, -0.5
*EQUATION
3
1337, 3, 1.0, 893, 3, -0.5, 895, 3, -0.5
*EQUATION
3
1338, 1, 1.0, 875, 1, -0.5, 895, 1, -0.5
*EQUATION
3
1338, 2, 1.0, 875, 2, -0.5, 895, 2, -0.5
*EQUATION
3
1338, 3, 1.0, 875, 3, -0.5, 895, 3, -0.5
*EQUATION
3
1339, 1, 1.0, 834, 1, -0.5, 851, 1, -0.5
*EQUATION
3
1339, 2, 1.0, 834, 2, -0.5, 851, 2, -0.5
*EQUATION
3
1339, 3, 1.0, 834, 3, -0.5, 851, 3, -0.5
*EQUATION
3
1340, 1, 1.0, 834, 1, -0.5, 853, 1, -0.5
*EQUATION
3
1340, 2, 1.0, 834, 2, -0.5, 853, 2, -0.5
*EQUATION
3
1340, 3, 1.0, 834, 3, -0.5, 853, 3, -0.5
*EQUATION
5
1341, 1, 1.0, 834, 1, -0.25, 853, 1, -0.25, 854, 1, -0.25, 851, 1, -0.25
*EQUATION
5
1341, 2, 1.0, 834, 2, -0.25, 853, 2, -0.25, 854, 2, -0.25, 851, 2, -0.25
*EQUATION
5
1341, 3, 1.0, 834, 3, -0.25, 853, 3, -0.25, 854, 3, -0.25, 851, 3, -0.25
*EQUATION
3
1342, 1, 1.0, 851, 1, -0.5, 854, 1, -0.5
*EQUATION
3
1342, 2, 1.0, 851, 2, -0.5, 854, 2, -0.5
*EQUATION
3
1342, 3, 1.0, 851, 3, -0.5, 854, 3, -0.5
*EQUATION
3
1343, 1, 1.0, 853, 1, -0.5, 854, 1, -0.5
*EQUATION
3
1343, 2, 1.0, 853, 2, -0.5, 854, 2, -0.5
*EQUATION
3
1343, 3, 1.0, 853, 3, -0.5, 854, 3, -0.5
*EQUATION
3
1344, 1, 1.0, 834, 1, -0.5, 882, 1, -0.5
*EQUATION
3
1344, 2, 1.0, 834, 2, -0.5, 882, 2, -0.5
*EQUATION
3
1344, 3, 1.0, 834, 3, -0.5, 882, 3, -0.5
*EQUATION
5
1345, 1, 1.0, 834, 1, -0.25, 882, 1, -0.25, 899, 1, -0.25, 851, 1, -0.25
*EQUATION
5
1345, 2, 1.0, 834, 2, -0.25, 882, 2, -0.25, 899, 2, -0.25, 851, 2, -0.25
*EQUATION
5
1345, 3, 1.0, 834, 3, -0.25, 882, 3, -0.25, 899, 3, -0.25, 851, 3, -0.25
*EQUATION
3
1346, 1, 1.0, 851, 1, -0.5, 899, 1, -0.5
*EQUATION
3
1346, 2, 1.0, 851, 2, -0.5, 899, 2, -0.5
*EQUATION
3
1346, 3, 1.0, 851, 3, -0.5, 899, 3, -0.5
*EQUATION
5
1349, 1, 1.0, 851, 1, -0.25, 899, 1, -0.25, 902, 1, -0.25, 854, 1, -0.25
*EQUATION
5
1349, 2, 1.0, 851, 2, -0.25, 899, 2, -0.25, 902, 2, -0.25, 854, 2, -0.25
*EQUATION
5
1349, 3, 1.0, 851, 3, -0.25, 899, 3, -0.25, 902, 3, -0.25, 854, 3, -0.25
*EQUATION
3
1350, 1, 1.0, 853, 1, -0.5, 901, 1, -0.5
*EQUATION
3
1350, 2, 1.0, 853, 2, -0.5, 901, 2, -0.5
*EQUATION
3
1350, 3, 1.0, 853, 3, -0.5, 901, 3, -0.5
*EQUATION
5
1351, 1, 1.0, 853, 1, -0.25, 901, 1, -0.25, 902, 1, -0.25, 854, 1, -0.25
*EQUATION
5
1351, 2, 1.0, 853, 2, -0.25, 901, 2, -0.25, 902, 2, -0.25, 854, 2, -0.25
*EQUATION
5
1351, 3, 1.0, 853, 3, -0.25, 901, 3, -0.25, 902, 3, -0.25, 854, 3, -0.25
*EQUATION
3
1352, 1, 1.0, 854, 1, -0.5, 902, 1, -0.5
*EQUATION
3
1352, 2, 1.0, 854, 2, -0.5, 902, 2, -0.5
*EQUATION
3
1352, 3, 1.0, 854, 3, -0.5, 902, 3, -0.5
*EQUATION
3
1353, 1, 1.0, 882, 1, -0.5, 899, 1, -0.5
*EQUATION
3
1353, 2, 1.0, 882, 2, -0.5, 899, 2, -0.5
*EQUATION
3
1353, 3, 1.0, 882, 3, -0.5, 899, 3, -0.5
*EQUATION
3
1356, 1, 1.0, 899, 1, -0.5, 902, 1, -0.5
*EQUATION
3
1356, 2, 1.0, 899, 2, -0.5, 902, 2, -0.5
*EQUATION
3
1356, 3, 1.0, 899, 3, -0.5, 902, 3, -0.5
*EQUATION
3
1357, 1, 1.0, 901, 1, -0.5, 902, 1, -0.5
*EQUATION
3
1357, 2, 1.0, 901, 2, -0.5, 902, 2, -0.5
*EQUATION
3
1357, 3, 1.0, 901, 3, -0.5, 902, 3, -0.5
*EQUATION
3
1365, 1, 1.0, 913, 1, -0.5, 919, 1, -0.5
*EQUATION
3
1365, 2, 1.0, 913, 2, -0.5, 919, 2, -0.5
*EQUATION
3
1365, 3, 1.0, 913, 3, -0.5, 919, 3, -0.5
*EQUATION
5
1368, 1, 1.0, 913, 1, -0.25, 919, 1, -0.25, 922, 1, -0.25, 915, 1, -0.25
*EQUATION
5
1368, 2, 1.0, 913, 2, -0.25, 919, 2, -0.25, 922, 2, -0.25, 915, 2, -0.25
*EQUATION
5
1368, 3, 1.0, 913, 3, -0.25, 919, 3, -0.25, 922, 3, -0.25, 915, 3, -0.25
*EQUATION
3
1371, 1, 1.0, 915, 1, -0.5, 922, 1, -0.5
*EQUATION
3
1371, 2, 1.0, 915, 2, -0.5, 922, 2, -0.5
*EQUATION
3
1371, 3, 1.0, 915, 3, -0.5, 922, 3, -0.5
*EQUATION
3
1375, 1, 1.0, 919, 1, -0.5, 922, 1, -0.5
*EQUATION
3
1375, 2, 1.0, 919, 2, -0.5, 922, 2, -0.5
*EQUATION
3
1375, 3, 1.0, 919, 3, -0.5, 922, 3, -0.5
*EQUATION
5
1383, 1, 1.0, 915, 1, -0.25, 922, 1, -0.25, 925, 1, -0.25, 917, 1, -0.25
*EQUATION
5
1383, 2, 1.0, 915, 2, -0.25, 922, 2, -0.25, 925, 2, -0.25, 917, 2, -0.25
*EQUATION
5
1383, 3, 1.0, 915, 3, -0.25, 922, 3, -0.25, 925, 3, -0.25, 917, 3, -0.25
*EQUATION
3
1386, 1, 1.0, 917, 1, -0.5, 925, 1, -0.5
*EQUATION
3
1386, 2, 1.0, 917, 2, -0.5, 925, 2, -0.5
*EQUATION
3
1386, 3, 1.0, 917, 3, -0.5, 925, 3, -0.5
*EQUATION
3
1389, 1, 1.0, 922, 1, -0.5, 925, 1, -0.5
*EQUATION
3
1389, 2, 1.0, 922, 2, -0.5, 925, 2, -0.5
*EQUATION
3
1389, 3, 1.0, 922, 3, -0.5, 925, 3, -0.5
*EQUATION
3
1400, 1, 1.0, 2, 1, -0.5, 927, 1, -0.5
*EQUATION
3
1400, 2, 1.0, 2, 2, -0.5, 927, 2, -0.5
*EQUATION
3
1400, 3, 1.0, 2, 3, -0.5, 927, 3, -0.5
*EQUATION
3
1401, 1, 1.0, 2, 1, -0.5, 928, 1, -0.5
*EQUATION
3
1401, 2, 1.0, 2, 2, -0.5, 928, 2, -0.5
*EQUATION
3
1401, 3, 1.0, 2, 3, -0.5, 928, 3, -0.5
*EQUATION
5
1402, 1, 1.0, 2, 1, -0.25, 928, 1, -0.25, 929, 1, -0.25, 927, 1, -0.25
*EQUATION
5
1402, 2, 1.0, 2, 2, -0.25, 928, 2, -0.25, 929, 2, -0.25, 927, 2, -0.25
*EQUATION
5
1402, 3, 1.0, 2, 3, -0.25, 928, 3, -0.25, 929, 3, -0.25, 927, 3, -0.25
*EQUATION
3
1403, 1, 1.0, 927, 1, -0.5, 929, 1, -0.5
*EQUATION
3
1403, 2, 1.0, 927, 2, -0.5, 929, 2, -0.5
*EQUATION
3
1403, 3, 1.0, 927, 3, -0.5, 929, 3, -0.5
*EQUATION
3
1404, 1, 1.0, 928, 1, -0.5, 929, 1, -0.5
*EQUATION
3
1404, 2, 1.0, 928, 2, -0.5, 929, 2, -0.5
*EQUATION
3
1404, 3, 1.0, 928, 3, -0.5, 929, 3, -0.5
*EQUATION
3
1405, 1, 1.0, 919, 1, -0.5, 920, 1, -0.5
*EQUATION
3
1405, 2, 1.0, 919, 2, -0.5, 920, 2, -0.5
*EQUATION
3
1405, 3, 1.0, 919, 3, -0.5, 920, 3, -0.5
*EQUATION
5
1406, 1, 1.0, 919, 1, -0.25, 922, 1, -0.25, 923, 1, -0.25, 920, 1, -0.25
*EQUATION
5
1406, 2, 1.0, 919, 2, -0.25, 922, 2, -0.25, 923, 2, -0.25, 920, 2, -0.25
*EQUATION
5
1406, 3, 1.0, 919, 3, -0.25, 922, 3, -0.25, 923, 3, -0.25, 920, 3, -0.25
*EQUATION
3
1407, 1, 1.0, 920, 1, -0.5, 923, 1, -0.5
*EQUATION
3
1407, 2, 1.0, 920, 2, -0.5, 923, 2, -0.5
*EQUATION
3
1407, 3, 1.0, 920, 3, -0.5, 923, 3, -0.5
*EQUATION
3
1408, 1, 1.0, 922, 1, -0.5, 923, 1, -0.5
*EQUATION
3
1408, 2, 1.0, 922, 2, -0.5, 923, 2, -0.5
*EQUATION
3
1408, 3, 1.0, 922, 3, -0.5, 923, 3, -0.5
*EQUATION
3
1415, 1, 1.0, 6, 1, -0.5, 927, 1, -0.5
*EQUATION
3
1415, 2, 1.0, 6, 2, -0.5, 927, 2, -0.5
*EQUATION
3
1415, 3, 1.0, 6, 3, -0.5, 927, 3, -0.5
*EQUATION
5
1416, 1, 1.0, 927, 1, -0.25, 929, 1, -0.25, 930, 1, -0.25, 6, 1, -0.25
*EQUATION
5
1416, 2, 1.0, 927, 2, -0.25, 929, 2, -0.25, 930, 2, -0.25, 6, 2, -0.25
*EQUATION
5
1416, 3, 1.0, 927, 3, -0.25, 929, 3, -0.25, 930, 3, -0.25, 6, 3, -0.25
*EQUATION
3
1417, 1, 1.0, 6, 1, -0.5, 930, 1, -0.5
*EQUATION
3
1417, 2, 1.0, 6, 2, -0.5, 930, 2, -0.5
*EQUATION
3
1417, 3, 1.0, 6, 3, -0.5, 930, 3, -0.5
*EQUATION
3
1418, 1, 1.0, 929, 1, -0.5, 930, 1, -0.5
*EQUATION
3
1418, 2, 1.0, 929, 2, -0.5, 930, 2, -0.5
*EQUATION
3
1418, 3, 1.0, 929, 3, -0.5, 930, 3, -0.5
*EQUATION
3
1425, 1, 1.0, 3, 1, -0.5, 928, 1, -0.5
*EQUATION
3
1425, 2, 1.0, 3, 2, -0.5, 928, 2, -0.5
*EQUATION
3
1425, 3, 1.0, 3, 3, -0.5, 928, 3, -0.5
*EQUATION
5
1426, 1, 1.0, 928, 1, -0.25, 3, 1, -0.25, 931, 1, -0.25, 929, 1, -0.25
*EQUATION
5
1426, 2, 1.0, 928, 2, -0.25, 3, 2, -0.25, 931, 2, -0.25, 929, 2, -0.25
*EQUATION
5
1426, 3, 1.0, 928, 3, -0.25, 3, 3, -0.25, 931, 3, -0.25, 929, 3, -0.25
*EQUATION
3
1427, 1, 1.0, 929, 1, -0.5, 931, 1, -0.5
*EQUATION
3
1427, 2, 1.0, 929, 2, -0.5, 931, 2, -0.5
*EQUATION
3
1427, 3, 1.0, 929, 3, -0.5, 931, 3, -0.5
*EQUATION
3
1428, 1, 1.0, 3, 1, -0.5, 931, 1, -0.5
*EQUATION
3
1428, 2, 1.0, 3, 2, -0.5, 931, 2, -0.5
*EQUATION
3
1428, 3, 1.0, 3, 3, -0.5, 931, 3, -0.5
*EQUATION
5
1429, 1, 1.0, 922, 1, -0.25, 925, 1, -0.25, 926, 1, -0.25, 923, 1, -0.25
*EQUATION
5
1429, 2, 1.0, 922, 2, -0.25, 925, 2, -0.25, 926, 2, -0.25, 923, 2, -0.25
*EQUATION
5
1429, 3, 1.0, 922, 3, -0.25, 925, 3, -0.25, 926, 3, -0.25, 923, 3, -0.25
*EQUATION
3
1430, 1, 1.0, 923, 1, -0.5, 926, 1, -0.5
*EQUATION
3
1430, 2, 1.0, 923, 2, -0.5, 926, 2, -0.5
*EQUATION
3
1430, 3, 1.0, 923, 3, -0.5, 926, 3, -0.5
*EQUATION
3
1431, 1, 1.0, 925, 1, -0.5, 926, 1, -0.5
*EQUATION
3
1431, 2, 1.0, 925, 2, -0.5, 926, 2, -0.5
*EQUATION
3
1431, 3, 1.0, 925, 3, -0.5, 926, 3, -0.5
*EQUATION
5
1436, 1, 1.0, 929, 1, -0.25, 931, 1, -0.25, 7, 1, -0.25, 930, 1, -0.25
*EQUATION
5
1436, 2, 1.0, 929, 2, -0.25, 931, 2, -0.25, 7, 2, -0.25, 930, 2, -0.25
*EQUATION
5
1436, 3, 1.0, 929, 3, -0.25, 931, 3, -0.25, 7, 3, -0.25, 930, 3, -0.25
*EQUATION
3
1437, 1, 1.0, 7, 1, -0.5, 930, 1, -0.5
*EQUATION
3
1437, 2, 1.0, 7, 2, -0.5, 930, 2, -0.5
*EQUATION
3
1437, 3, 1.0, 7, 3, -0.5, 930, 3, -0.5
*EQUATION
3
1438, 1, 1.0, 7, 1, -0.5, 931, 1, -0.5
*EQUATION
3
1438, 2, 1.0, 7, 2, -0.5, 931, 2, -0.5
*EQUATION
3
1438, 3, 1.0, 7, 3, -0.5, 931, 3, -0.5
*EQUATION
3
1439, 1, 1.0, 920, 1, -0.5, 936, 1, -0.5
*EQUATION
3
1439, 2, 1.0, 920, 2, -0.5, 936, 2, -0.5
*EQUATION
3
1439, 3, 1.0, 920, 3, -0.5, 936, 3, -0.5
*EQUATION
5
1440, 1, 1.0, 920, 1, -0.25, 923, 1, -0.25, 938, 1, -0.25, 936, 1, -0.25
*EQUATION
5
1440, 2, 1.0, 920, 2, -0.25, 923, 2, -0.25, 938, 2, -0.25, 936, 2, -0.25
*EQUATION
5
1440, 3, 1.0, 920, 3, -0.25, 923, 3, -0.25, 938, 3, -0.25, 936, 3, -0.25
*EQUATION
3
1441, 1, 1.0, 936, 1, -0.5, 938, 1, -0.5
*EQUATION
3
1441, 2, 1.0, 936, 2, -0.5, 938, 2, -0.5
*EQUATION
3
1441, 3, 1.0, 936, 3, -0.5, 938, 3, -0.5
*EQUATION
3
1442, 1, 1.0, 923, 1, -0.5, 938, 1, -0.5
*EQUATION
3
1442, 2, 1.0, 923, 2, -0.5, 938, 2, -0.5
*EQUATION
3
1442, 3, 1.0, 923, 3, -0.5, 938, 3, -0.5
*EQUATION
3
1444, 1, 1.0, 936, 1, -0.5, 942, 1, -0.5
*EQUATION
3
1444, 2, 1.0, 936, 2, -0.5, 942, 2, -0.5
*EQUATION
3
1444, 3, 1.0, 936, 3, -0.5, 942, 3, -0.5
*EQUATION
5
1446, 1, 1.0, 936, 1, -0.25, 942, 1, -0.25, 943, 1, -0.25, 938, 1, -0.25
*EQUATION
5
1446, 2, 1.0, 936, 2, -0.25, 942, 2, -0.25, 943, 2, -0.25, 938, 2, -0.25
*EQUATION
5
1446, 3, 1.0, 936, 3, -0.25, 942, 3, -0.25, 943, 3, -0.25, 938, 3, -0.25
*EQUATION
3
1448, 1, 1.0, 938, 1, -0.5, 943, 1, -0.5
*EQUATION
3
1448, 2, 1.0, 938, 2, -0.5, 943, 2, -0.5
*EQUATION
3
1448, 3, 1.0, 938, 3, -0.5, 943, 3, -0.5
*EQUATION
3
1449, 1, 1.0, 6, 1, -0.5, 942, 1, -0.5
*EQUATION
3
1449, 2, 1.0, 6, 2, -0.5, 942, 2, -0.5
*EQUATION
3
1449, 3, 1.0, 6, 3, -0.5, 942, 3, -0.5
*EQUATION
5
1450, 1, 1.0, 6, 1, -0.25, 930, 1, -0.25, 943, 1, -0.25, 942, 1, -0.25
*EQUATION
5
1450, 2, 1.0, 6, 2, -0.25, 930, 2, -0.25, 943, 2, -0.25, 942, 2, -0.25
*EQUATION
5
1450, 3, 1.0, 6, 3, -0.25, 930, 3, -0.25, 943, 3, -0.25, 942, 3, -0.25
*EQUATION
3
1451, 1, 1.0, 942, 1, -0.5, 943, 1, -0.5
*EQUATION
3
1451, 2, 1.0, 942, 2, -0.5, 943, 2, -0.5
*EQUATION
3
1451, 3, 1.0, 942, 3, -0.5, 943, 3, -0.5
*EQUATION
3
1452, 1, 1.0, 930, 1, -0.5, 943, 1, -0.5
*EQUATION
3
1452, 2, 1.0, 930, 2, -0.5, 943, 2, -0.5
*EQUATION
3
1452, 3, 1.0, 930, 3, -0.5, 943, 3, -0.5
*EQUATION
5
1453, 1, 1.0, 923, 1, -0.25, 926, 1, -0.25, 940, 1, -0.25, 938, 1, -0.25
*EQUATION
5
1453, 2, 1.0, 923, 2, -0.25, 926, 2, -0.25, 940, 2, -0.25, 938, 2, -0.25
*EQUATION
5
1453, 3, 1.0, 923, 3, -0.25, 926, 3, -0.25, 940, 3, -0.25, 938, 3, -0.25
*EQUATION
3
1454, 1, 1.0, 938, 1, -0.5, 940, 1, -0.5
*EQUATION
3
1454, 2, 1.0, 938, 2, -0.5, 940, 2, -0.5
*EQUATION
3
1454, 3, 1.0, 938, 3, -0.5, 940, 3, -0.5
*EQUATION
3
1455, 1, 1.0, 926, 1, -0.5, 940, 1, -0.5
*EQUATION
3
1455, 2, 1.0, 926, 2, -0.5, 940, 2, -0.5
*EQUATION
3
1455, 3, 1.0, 926, 3, -0.5, 940, 3, -0.5
*EQUATION
5
1457, 1, 1.0, 938, 1, -0.25, 943, 1, -0.25, 945, 1, -0.25, 940, 1, -0.25
*EQUATION
5
1457, 2, 1.0, 938, 2, -0.25, 943, 2, -0.25, 945, 2, -0.25, 940, 2, -0.25
*EQUATION
5
1457, 3, 1.0, 938, 3, -0.25, 943, 3, -0.25, 945, 3, -0.25, 940, 3, -0.25
*EQUATION
3
1459, 1, 1.0, 940, 1, -0.5, 945, 1, -0.5
*EQUATION
3
1459, 2, 1.0, 940, 2, -0.5, 945, 2, -0.5
*EQUATION
3
1459, 3, 1.0, 940, 3, -0.5, 945, 3, -0.5
*EQUATION
5
1460, 1, 1.0, 930, 1, -0.25, 7, 1, -0.25, 945, 1, -0.25, 943, 1, -0.25
*EQUATION
5
1460, 2, 1.0, 930, 2, -0.25, 7, 2, -0.25, 945, 2, -0.25, 943, 2, -0.25
*EQUATION
5
1460, 3, 1.0, 930, 3, -0.25, 7, 3, -0.25, 945, 3, -0.25, 943, 3, -0.25
*EQUATION
3
1461, 1, 1.0, 943, 1, -0.5, 945, 1, -0.5
*EQUATION
3
1461, 2, 1.0, 943, 2, -0.5, 945, 2, -0.5
*EQUATION
3
1461, 3, 1.0, 943, 3, -0.5, 945, 3, -0.5
*EQUATION
3
1462, 1, 1.0, 7, 1, -0.5, 945, 1, -0.5
*EQUATION
3
1462, 2, 1.0, 7, 2, -0.5, 945, 2, -0.5
*EQUATION
3
1462, 3, 1.0, 7, 3, -0.5, 945, 3, -0.5
*EQUATION
3
1468, 1, 1.0, 13, 1, -0.5, 14, 1, -0.5
*EQUATION
3
1468, 2, 1.0, 13, 2, -0.5, 14, 2, -0.5
*EQUATION
3
1468, 3, 1.0, 13, 3, -0.5, 14, 3, -0.5
*EQUATION
5
1470, 1, 1.0, 13, 1, -0.25, 14, 1, -0.25, 15, 1, -0.25, 16, 1, -0.25
*EQUATION
5
1470, 2, 1.0, 13, 2, -0.25, 14, 2, -0.25, 15, 2, -0.25, 16, 2, -0.25
*EQUATION
5
1470, 3, 1.0, 13, 3, -0.25, 14, 3, -0.25, 15, 3, -0.25, 16, 3, -0.25
*EQUATION
3
1472, 1, 1.0, 15, 1, -0.5, 16, 1, -0.5
*EQUATION
3
1472, 2, 1.0, 15, 2, -0.5, 16, 2, -0.5
*EQUATION
3
1472, 3, 1.0, 15, 3, -0.5, 16, 3, -0.5
*EQUATION
5
1479, 1, 1.0, 917, 1, -0.25, 925, 1, -0.25, 951, 1, -0.25, 947, 1, -0.25
*EQUATION
5
1479, 2, 1.0, 917, 2, -0.25, 925, 2, -0.25, 951, 2, -0.25, 947, 2, -0.25
*EQUATION
5
1479, 3, 1.0, 917, 3, -0.25, 925, 3, -0.25, 951, 3, -0.25, 947, 3, -0.25
*EQUATION
3
1482, 1, 1.0, 947, 1, -0.5, 951, 1, -0.5
*EQUATION
3
1482, 2, 1.0, 947, 2, -0.5, 951, 2, -0.5
*EQUATION
3
1482, 3, 1.0, 947, 3, -0.5, 951, 3, -0.5
*EQUATION
3
1485, 1, 1.0, 925, 1, -0.5, 951, 1, -0.5
*EQUATION
3
1485, 2, 1.0, 925, 2, -0.5, 951, 2, -0.5
*EQUATION
3
1485, 3, 1.0, 925, 3, -0.5, 951, 3, -0.5
*EQUATION
5
1493, 1, 1.0, 947, 1, -0.25, 951, 1, -0.25, 954, 1, -0.25, 949, 1, -0.25
*EQUATION
5
1493, 2, 1.0, 947, 2, -0.25, 951, 2, -0.25, 954, 2, -0.25, 949, 2, -0.25
*EQUATION
5
1493, 3, 1.0, 947, 3, -0.25, 951, 3, -0.25, 954, 3, -0.25, 949, 3, -0.25
*EQUATION
3
1496, 1, 1.0, 949, 1, -0.5, 954, 1, -0.5
*EQUATION
3
1496, 2, 1.0, 949, 2, -0.5, 954, 2, -0.5
*EQUATION
3
1496, 3, 1.0, 949, 3, -0.5, 954, 3, -0.5
*EQUATION
3
1499, 1, 1.0, 951, 1, -0.5, 954, 1, -0.5
*EQUATION
3
1499, 2, 1.0, 951, 2, -0.5, 954, 2, -0.5
*EQUATION
3
1499, 3, 1.0, 951, 3, -0.5, 954, 3, -0.5
*EQUATION
3
1507, 1, 1.0, 3, 1, -0.5, 956, 1, -0.5
*EQUATION
3
1507, 2, 1.0, 3, 2, -0.5, 956, 2, -0.5
*EQUATION
3
1507, 3, 1.0, 3, 3, -0.5, 956, 3, -0.5
*EQUATION
5
1508, 1, 1.0, 3, 1, -0.25, 956, 1, -0.25, 957, 1, -0.25, 931, 1, -0.25
*EQUATION
5
1508, 2, 1.0, 3, 2, -0.25, 956, 2, -0.25, 957, 2, -0.25, 931, 2, -0.25
*EQUATION
5
1508, 3, 1.0, 3, 3, -0.25, 956, 3, -0.25, 957, 3, -0.25, 931, 3, -0.25
*EQUATION
3
1509, 1, 1.0, 931, 1, -0.5, 957, 1, -0.5
*EQUATION
3
1509, 2, 1.0, 931, 2, -0.5, 957, 2, -0.5
*EQUATION
3
1509, 3, 1.0, 931, 3, -0.5, 957, 3, -0.5
*EQUATION
3
1510, 1, 1.0, 956, 1, -0.5, 957, 1, -0.5
*EQUATION
3
1510, 2, 1.0, 956, 2, -0.5, 957, 2, -0.5
*EQUATION
3
1510, 3, 1.0, 956, 3, -0.5, 957, 3, -0.5
*EQUATION
5
1511, 1, 1.0, 925, 1, -0.25, 951, 1, -0.25, 952, 1, -0.25, 926, 1, -0.25
*EQUATION
5
1511, 2, 1.0, 925, 2, -0.25, 951, 2, -0.25, 952, 2, -0.25, 926, 2, -0.25
*EQUATION
5
1511, 3, 1.0, 925, 3, -0.25, 951, 3, -0.25, 952, 3, -0.25, 926, 3, -0.25
*EQUATION
3
1512, 1, 1.0, 926, 1, -0.5, 952, 1, -0.5
*EQUATION
3
1512, 2, 1.0, 926, 2, -0.5, 952, 2, -0.5
*EQUATION
3
1512, 3, 1.0, 926, 3, -0.5, 952, 3, -0.5
*EQUATION
3
1513, 1, 1.0, 951, 1, -0.5, 952, 1, -0.5
*EQUATION
3
1513, 2, 1.0, 951, 2, -0.5, 952, 2, -0.5
*EQUATION
3
1513, 3, 1.0, 951, 3, -0.5, 952, 3, -0.5
*EQUATION
5
1518, 1, 1.0, 931, 1, -0.25, 957, 1, -0.25, 958, 1, -0.25, 7, 1, -0.25
*EQUATION
5
1518, 2, 1.0, 931, 2, -0.25, 957, 2, -0.25, 958, 2, -0.25, 7, 2, -0.25
*EQUATION
5
1518, 3, 1.0, 931, 3, -0.25, 957, 3, -0.25, 958, 3, -0.25, 7, 3, -0.25
*EQUATION
3
1519, 1, 1.0, 7, 1, -0.5, 958, 1, -0.5
*EQUATION
3
1519, 2, 1.0, 7, 2, -0.5, 958, 2, -0.5
*EQUATION
3
1519, 3, 1.0, 7, 3, -0.5, 958, 3, -0.5
*EQUATION
3
1520, 1, 1.0, 957, 1, -0.5, 958, 1, -0.5
*EQUATION
3
1520, 2, 1.0, 957, 2, -0.5, 958, 2, -0.5
*EQUATION
3
1520, 3, 1.0, 957, 3, -0.5, 958, 3, -0.5
*EQUATION
3
1527, 1, 1.0, 25, 1, -0.5, 956, 1, -0.5
*EQUATION
3
1527, 2, 1.0, 25, 2, -0.5, 956, 2, -0.5
*EQUATION
3
1527, 3, 1.0, 25, 3, -0.5, 956, 3, -0.5
*EQUATION
5
1528, 1, 1.0, 956, 1, -0.25, 25, 1, -0.25, 959, 1, -0.25, 957, 1, -0.25
*EQUATION
5
1528, 2, 1.0, 956, 2, -0.25, 25, 2, -0.25, 959, 2, -0.25, 957, 2, -0.25
*EQUATION
5
1528, 3, 1.0, 956, 3, -0.25, 25, 3, -0.25, 959, 3, -0.25, 957, 3, -0.25
*EQUATION
3
1529, 1, 1.0, 957, 1, -0.5, 959, 1, -0.5
*EQUATION
3
1529, 2, 1.0, 957, 2, -0.5, 959, 2, -0.5
*EQUATION
3
1529, 3, 1.0, 957, 3, -0.5, 959, 3, -0.5
*EQUATION
3
1530, 1, 1.0, 25, 1, -0.5, 959, 1, -0.5
*EQUATION
3
1530, 2, 1.0, 25, 2, -0.5, 959, 2, -0.5
*EQUATION
3
1530, 3, 1.0, 25, 3, -0.5, 959, 3, -0.5
*EQUATION
5
1531, 1, 1.0, 951, 1, -0.25, 954, 1, -0.25, 955, 1, -0.25, 952, 1, -0.25
*EQUATION
5
1531, 2, 1.0, 951, 2, -0.25, 954, 2, -0.25, 955, 2, -0.25, 952, 2, -0.25
*EQUATION
5
1531, 3, 1.0, 951, 3, -0.25, 954, 3, -0.25, 955, 3, -0.25, 952, 3, -0.25
*EQUATION
3
1532, 1, 1.0, 952, 1, -0.5, 955, 1, -0.5
*EQUATION
3
1532, 2, 1.0, 952, 2, -0.5, 955, 2, -0.5
*EQUATION
3
1532, 3, 1.0, 952, 3, -0.5, 955, 3, -0.5
*EQUATION
3
1533, 1, 1.0, 954, 1, -0.5, 955, 1, -0.5
*EQUATION
3
1533, 2, 1.0, 954, 2, -0.5, 955, 2, -0.5
*EQUATION
3
1533, 3, 1.0, 954, 3, -0.5, 955, 3, -0.5
*EQUATION
5
1538, 1, 1.0, 957, 1, -0.25, 959, 1, -0.25, 27, 1, -0.25, 958, 1, -0.25
*EQUATION
5
1538, 2, 1.0, 957, 2, -0.25, 959, 2, -0.25, 27, 2, -0.25, 958, 2, -0.25
*EQUATION
5
1538, 3, 1.0, 957, 3, -0.25, 959, 3, -0.25, 27, 3, -0.25, 958, 3, -0.25
*EQUATION
3
1539, 1, 1.0, 27, 1, -0.5, 958, 1, -0.5
*EQUATION
3
1539, 2, 1.0, 27, 2, -0.5, 958, 2, -0.5
*EQUATION
3
1539, 3, 1.0, 27, 3, -0.5, 958, 3, -0.5
*EQUATION
3
1540, 1, 1.0, 27, 1, -0.5, 959, 1, -0.5
*EQUATION
3
1540, 2, 1.0, 27, 2, -0.5, 959, 2, -0.5
*EQUATION
3
1540, 3, 1.0, 27, 3, -0.5, 959, 3, -0.5
*EQUATION
5
1541, 1, 1.0, 926, 1, -0.25, 952, 1, -0.25, 963, 1, -0.25, 940, 1, -0.25
*EQUATION
5
1541, 2, 1.0, 926, 2, -0.25, 952, 2, -0.25, 963, 2, -0.25, 940, 2, -0.25
*EQUATION
5
1541, 3, 1.0, 926, 3, -0.25, 952, 3, -0.25, 963, 3, -0.25, 940, 3, -0.25
*EQUATION
3
1542, 1, 1.0, 940, 1, -0.5, 963, 1, -0.5
*EQUATION
3
1542, 2, 1.0, 940, 2, -0.5, 963, 2, -0.5
*EQUATION
3
1542, 3, 1.0, 940, 3, -0.5, 963, 3, -0.5
*EQUATION
3
1543, 1, 1.0, 952, 1, -0.5, 963, 1, -0.5
*EQUATION
3
1543, 2, 1.0, 952, 2, -0.5, 963, 2, -0.5
*EQUATION
3
1543, 3, 1.0, 952, 3, -0.5, 963, 3, -0.5
*EQUATION
5
1545, 1, 1.0, 940, 1, -0.25, 945, 1, -0.25, 967, 1, -0.25, 963, 1, -0.25
*EQUATION
5
1545, 2, 1.0, 940, 2, -0.25, 945, 2, -0.25, 967, 2, -0.25, 963, 2, -0.25
*EQUATION
5
1545, 3, 1.0, 940, 3, -0.25, 945, 3, -0.25, 967, 3, -0.25, 963, 3, -0.25
*EQUATION
3
1547, 1, 1.0, 963, 1, -0.5, 967, 1, -0.5
*EQUATION
3
1547, 2, 1.0, 963, 2, -0.5, 967, 2, -0.5
*EQUATION
3
1547, 3, 1.0, 963, 3, -0.5, 967, 3, -0.5
*EQUATION
5
1548, 1, 1.0, 7, 1, -0.25, 958, 1, -0.25, 967, 1, -0.25, 945, 1, -0.25
*EQUATION
5
1548, 2, 1.0, 7, 2, -0.25, 958, 2, -0.25, 967, 2, -0.25, 945, 2, -0.25
*EQUATION
5
1548, 3, 1.0, 7, 3, -0.25, 958, 3, -0.25, 967, 3, -0.25, 945, 3, -0.25
*EQUATION
3
1549, 1, 1.0, 945, 1, -0.5, 967, 1, -0.5
*EQUATION
3
1549, 2, 1.0, 945, 2, -0.5, 967, 2, -0.5
*EQUATION
3
1549, 3, 1.0, 945, 3, -0.5, 967, 3, -0.5
*EQUATION
3
1550, 1, 1.0, 958, 1, -0.5, 967, 1, -0.5
*EQUATION
3
1550, 2, 1.0, 958, 2, -0.5, 967, 2, -0.5
*EQUATION
3
1550, 3, 1.0, 958, 3, -0.5, 967, 3, -0.5
*EQUATION
5
1551, 1, 1.0, 952, 1, -0.25, 955, 1, -0.25, 965, 1, -0.25, 963, 1, -0.25
*EQUATION
5
1551, 2, 1.0, 952, 2, -0.25, 955, 2, -0.25, 965, 2, -0.25, 963, 2, -0.25
*EQUATION
5
1551, 3, 1.0, 952, 3, -0.25, 955, 3, -0.25, 965, 3, -0.25, 963, 3, -0.25
*EQUATION
3
1552, 1, 1.0, 963, 1, -0.5, 965, 1, -0.5
*EQUATION
3
1552, 2, 1.0, 963, 2, -0.5, 965, 2, -0.5
*EQUATION
3
1552, 3, 1.0, 963, 3, -0.5, 965, 3, -0.5
*EQUATION
3
1553, 1, 1.0, 955, 1, -0.5, 965, 1, -0.5
*EQUATION
3
1553, 2, 1.0, 955, 2, -0.5, 965, 2, -0.5
*EQUATION
3
1553, 3, 1.0, 955, 3, -0.5, 965, 3, -0.5
*EQUATION
5
1555, 1, 1.0, 963, 1, -0.25, 967, 1, -0.25, 969, 1, -0.25, 965, 1, -0.25
*EQUATION
5
1555, 2, 1.0, 963, 2, -0.25, 967, 2, -0.25, 969, 2, -0.25, 965, 2, -0.25
*EQUATION
5
1555, 3, 1.0, 963, 3, -0.25, 967, 3, -0.25, 969, 3, -0.25, 965, 3, -0.25
*EQUATION
3
1557, 1, 1.0, 965, 1, -0.5, 969, 1, -0.5
*EQUATION
3
1557, 2, 1.0, 965, 2, -0.5, 969, 2, -0.5
*EQUATION
3
1557, 3, 1.0, 965, 3, -0.5, 969, 3, -0.5
*EQUATION
5
1558, 1, 1.0, 958, 1, -0.25, 27, 1, -0.25, 969, 1, -0.25, 967, 1, -0.25
*EQUATION
5
1558, 2, 1.0, 958, 2, -0.25, 27, 2, -0.25, 969, 2, -0.25, 967, 2, -0.25
*EQUATION
5
1558, 3, 1.0, 958, 3, -0.25, 27, 3, -0.25, 969, 3, -0.25, 967, 3, -0.25
*EQUATION
3
1559, 1, 1.0, 967, 1, -0.5, 969, 1, -0.5
*EQUATION
3
1559, 2, 1.0, 967, 2, -0.5, 969, 2, -0.5
*EQUATION
3
1559, 3, 1.0, 967, 3, -0.5, 969, 3, -0.5
*EQUATION
3
1560, 1, 1.0, 27, 1, -0.5, 969, 1, -0.5
*EQUATION
3
1560, 2, 1.0, 27, 2, -0.5, 969, 2, -0.5
*EQUATION
3
1560, 3, 1.0, 27, 3, -0.5, 969, 3, -0.5
*EQUATION
5
1565, 1, 1.0, 16, 1, -0.25, 15, 1, -0.25, 31, 1, -0.25, 32, 1, -0.25
*EQUATION
5
1565, 2, 1.0, 16, 2, -0.25, 15, 2, -0.25, 31, 2, -0.25, 32, 2, -0.25
*EQUATION
5
1565, 3, 1.0, 16, 3, -0.25, 15, 3, -0.25, 31, 3, -0.25, 32, 3, -0.25
*EQUATION
3
1567, 1, 1.0, 31, 1, -0.5, 32, 1, -0.5
*EQUATION
3
1567, 2, 1.0, 31, 2, -0.5, 32, 2, -0.5
*EQUATION
3
1567, 3, 1.0, 31, 3, -0.5, 32, 3, -0.5
*EQUATION
3
1568, 1, 1.0, 14, 1, -0.5, 18, 1, -0.5
*EQUATION
3
1568, 2, 1.0, 14, 2, -0.5, 18, 2, -0.5
*EQUATION
3
1568, 3, 1.0, 14, 3, -0.5, 18, 3, -0.5
*EQUATION
5
1569, 1, 1.0, 14, 1, -0.25, 15, 1, -0.25, 19, 1, -0.25, 18, 1, -0.25
*EQUATION
5
1569, 2, 1.0, 14, 2, -0.25, 15, 2, -0.25, 19, 2, -0.25, 18, 2, -0.25
*EQUATION
5
1569, 3, 1.0, 14, 3, -0.25, 15, 3, -0.25, 19, 3, -0.25, 18, 3, -0.25
*EQUATION
3
1570, 1, 1.0, 15, 1, -0.5, 19, 1, -0.5
*EQUATION
3
1570, 2, 1.0, 15, 2, -0.5, 19, 2, -0.5
*EQUATION
3
1570, 3, 1.0, 15, 3, -0.5, 19, 3, -0.5
*EQUATION
5
1573, 1, 1.0, 15, 1, -0.25, 104, 1, -0.25, 106, 1, -0.25, 19, 1, -0.25
*EQUATION
5
1573, 2, 1.0, 15, 2, -0.25, 104, 2, -0.25, 106, 2, -0.25, 19, 2, -0.25
*EQUATION
5
1573, 3, 1.0, 15, 3, -0.25, 104, 3, -0.25, 106, 3, -0.25, 19, 3, -0.25
*EQUATION
3
1574, 1, 1.0, 103, 1, -0.5, 105, 1, -0.5
*EQUATION
3
1574, 2, 1.0, 103, 2, -0.5, 105, 2, -0.5
*EQUATION
3
1574, 3, 1.0, 103, 3, -0.5, 105, 3, -0.5
*EQUATION
5
1575, 1, 1.0, 103, 1, -0.25, 104, 1, -0.25, 106, 1, -0.25, 105, 1, -0.25
*EQUATION
5
1575, 2, 1.0, 103, 2, -0.25, 104, 2, -0.25, 106, 2, -0.25, 105, 2, -0.25
*EQUATION
5
1575, 3, 1.0, 103, 3, -0.25, 104, 3, -0.25, 106, 3, -0.25, 105, 3, -0.25
*EQUATION
3
1576, 1, 1.0, 104, 1, -0.5, 106, 1, -0.5
*EQUATION
3
1576, 2, 1.0, 104, 2, -0.5, 106, 2, -0.5
*EQUATION
3
1576, 3, 1.0, 104, 3, -0.5, 106, 3, -0.5
*EQUATION
3
1577, 1, 1.0, 19, 1, -0.5, 33, 1, -0.5
*EQUATION
3
1577, 2, 1.0, 19, 2, -0.5, 33, 2, -0.5
*EQUATION
3
1577, 3, 1.0, 19, 3, -0.5, 33, 3, -0.5
*EQUATION
5
1578, 1, 1.0, 19, 1, -0.25, 33, 1, -0.25, 35, 1, -0.25, 23, 1, -0.25
*EQUATION
5
1578, 2, 1.0, 19, 2, -0.25, 33, 2, -0.25, 35, 2, -0.25, 23, 2, -0.25
*EQUATION
5
1578, 3, 1.0, 19, 3, -0.25, 33, 3, -0.25, 35, 3, -0.25, 23, 3, -0.25
*EQUATION
3
1579, 1, 1.0, 23, 1, -0.5, 35, 1, -0.5
*EQUATION
3
1579, 2, 1.0, 23, 2, -0.5, 35, 2, -0.5
*EQUATION
3
1579, 3, 1.0, 23, 3, -0.5, 35, 3, -0.5
*EQUATION
3
1580, 1, 1.0, 33, 1, -0.5, 35, 1, -0.5
*EQUATION
3
1580, 2, 1.0, 33, 2, -0.5, 35, 2, -0.5
*EQUATION
3
1580, 3, 1.0, 33, 3, -0.5, 35, 3, -0.5
*EQUATION
5
1581, 1, 1.0, 19, 1, -0.25, 106, 1, -0.25, 113, 1, -0.25, 33, 1, -0.25
*EQUATION
5
1581, 2, 1.0, 19, 2, -0.25, 106, 2, -0.25, 113, 2, -0.25, 33, 2, -0.25
*EQUATION
5
1581, 3, 1.0, 19, 3, -0.25, 106, 3, -0.25, 113, 3, -0.25, 33, 3, -0.25
*EQUATION
5
1583, 1, 1.0, 23, 1, -0.25, 108, 1, -0.25, 114, 1, -0.25, 35, 1, -0.25
*EQUATION
5
1583, 2, 1.0, 23, 2, -0.25, 108, 2, -0.25, 114, 2, -0.25, 35, 2, -0.25
*EQUATION
5
1583, 3, 1.0, 23, 3, -0.25, 108, 3, -0.25, 114, 3, -0.25, 35, 3, -0.25
*EQUATION
3
1584, 1, 1.0, 33, 1, -0.5, 113, 1, -0.5
*EQUATION
3
1584, 2, 1.0, 33, 2, -0.5, 113, 2, -0.5
*EQUATION
3
1584, 3, 1.0, 33, 3, -0.5, 113, 3, -0.5
*EQUATION
3
1586, 1, 1.0, 35, 1, -0.5, 114, 1, -0.5
*EQUATION
3
1586, 2, 1.0, 35, 2, -0.5, 114, 2, -0.5
*EQUATION
3
1586, 3, 1.0, 35, 3, -0.5, 114, 3, -0.5
*EQUATION
3
1587, 1, 1.0, 106, 1, -0.5, 113, 1, -0.5
*EQUATION
3
1587, 2, 1.0, 106, 2, -0.5, 113, 2, -0.5
*EQUATION
3
1587, 3, 1.0, 106, 3, -0.5, 113, 3, -0.5
*EQUATION
5
1588, 1, 1.0, 106, 1, -0.25, 113, 1, -0.25, 114, 1, -0.25, 108, 1, -0.25
*EQUATION
5
1588, 2, 1.0, 106, 2, -0.25, 113, 2, -0.25, 114, 2, -0.25, 108, 2, -0.25
*EQUATION
5
1588, 3, 1.0, 106, 3, -0.25, 113, 3, -0.25, 114, 3, -0.25, 108, 3, -0.25
*EQUATION
3
1589, 1, 1.0, 108, 1, -0.5, 114, 1, -0.5
*EQUATION
3
1589, 2, 1.0, 108, 2, -0.5, 114, 2, -0.5
*EQUATION
3
1589, 3, 1.0, 108, 3, -0.5, 114, 3, -0.5
*EQUATION
3
1590, 1, 1.0, 113, 1, -0.5, 114, 1, -0.5
*EQUATION
3
1590, 2, 1.0, 113, 2, -0.5, 114, 2, -0.5
*EQUATION
3
1590, 3, 1.0, 113, 3, -0.5, 114, 3, -0.5
*EQUATION
3
1591, 1, 1.0, 38, 1, -0.5, 42, 1, -0.5
*EQUATION
3
1591, 2, 1.0, 38, 2, -0.5, 42, 2, -0.5
*EQUATION
3
1591, 3, 1.0, 38, 3, -0.5, 42, 3, -0.5
*EQUATION
3
1592, 1, 1.0, 38, 1, -0.5, 39, 1, -0.5
*EQUATION
3
1592, 2, 1.0, 38, 2, -0.5, 39, 2, -0.5
*EQUATION
3
1592, 3, 1.0, 38, 3, -0.5, 39, 3, -0.5
*EQUATION
5
1593, 1, 1.0, 38, 1, -0.25, 39, 1, -0.25, 43, 1, -0.25, 42, 1, -0.25
*EQUATION
5
1593, 2, 1.0, 38, 2, -0.25, 39, 2, -0.25, 43, 2, -0.25, 42, 2, -0.25
*EQUATION
5
1593, 3, 1.0, 38, 3, -0.25, 39, 3, -0.25, 43, 3, -0.25, 42, 3, -0.25
*EQUATION
3
1594, 1, 1.0, 39, 1, -0.5, 43, 1, -0.5
*EQUATION
3
1594, 2, 1.0, 39, 2, -0.5, 43, 2, -0.5
*EQUATION
3
1594, 3, 1.0, 39, 3, -0.5, 43, 3, -0.5
*EQUATION
3
1601, 1, 1.0, 115, 1, -0.5, 117, 1, -0.5
*EQUATION
3
1601, 2, 1.0, 115, 2, -0.5, 117, 2, -0.5
*EQUATION
3
1601, 3, 1.0, 115, 3, -0.5, 117, 3, -0.5
*EQUATION
3
1602, 1, 1.0, 115, 1, -0.5, 116, 1, -0.5
*EQUATION
3
1602, 2, 1.0, 115, 2, -0.5, 116, 2, -0.5
*EQUATION
3
1602, 3, 1.0, 115, 3, -0.5, 116, 3, -0.5
*EQUATION
5
1603, 1, 1.0, 115, 1, -0.25, 116, 1, -0.25, 118, 1, -0.25, 117, 1, -0.25
*EQUATION
5
1603, 2, 1.0, 115, 2, -0.25, 116, 2, -0.25, 118, 2, -0.25, 117, 2, -0.25
*EQUATION
5
1603, 3, 1.0, 115, 3, -0.25, 116, 3, -0.25, 118, 3, -0.25, 117, 3, -0.25
*EQUATION
3
1604, 1, 1.0, 116, 1, -0.5, 118, 1, -0.5
*EQUATION
3
1604, 2, 1.0, 116, 2, -0.5, 118, 2, -0.5
*EQUATION
3
1604, 3, 1.0, 116, 3, -0.5, 118, 3, -0.5
*EQUATION
3
1606, 1, 1.0, 1054, 1, -0.5, 1056, 1, -0.5
*EQUATION
3
1606, 2, 1.0, 1054, 2, -0.5, 1056, 2, -0.5
*EQUATION
3
1606, 3, 1.0, 1054, 3, -0.5, 1056, 3, -0.5
*EQUATION
3
1610, 1, 1.0, 1054, 1, -0.5, 1060, 1, -0.5
*EQUATION
3
1610, 2, 1.0, 1054, 2, -0.5, 1060, 2, -0.5
*EQUATION
3
1610, 3, 1.0, 1054, 3, -0.5, 1060, 3, -0.5
*EQUATION
5
1613, 1, 1.0, 1054, 1, -0.25, 1060, 1, -0.25, 1063, 1, -0.25, 1056, 1, -0.25
*EQUATION
5
1613, 2, 1.0, 1054, 2, -0.25, 1060, 2, -0.25, 1063, 2, -0.25, 1056, 2, -0.25
*EQUATION
5
1613, 3, 1.0, 1054, 3, -0.25, 1060, 3, -0.25, 1063, 3, -0.25, 1056, 3, -0.25
*EQUATION
3
1616, 1, 1.0, 1056, 1, -0.5, 1063, 1, -0.5
*EQUATION
3
1616, 2, 1.0, 1056, 2, -0.5, 1063, 2, -0.5
*EQUATION
3
1616, 3, 1.0, 1056, 3, -0.5, 1063, 3, -0.5
*EQUATION
3
1619, 1, 1.0, 1060, 1, -0.5, 1061, 1, -0.5
*EQUATION
3
1619, 2, 1.0, 1060, 2, -0.5, 1061, 2, -0.5
*EQUATION
3
1619, 3, 1.0, 1060, 3, -0.5, 1061, 3, -0.5
*EQUATION
3
1620, 1, 1.0, 1060, 1, -0.5, 1063, 1, -0.5
*EQUATION
3
1620, 2, 1.0, 1060, 2, -0.5, 1063, 2, -0.5
*EQUATION
3
1620, 3, 1.0, 1060, 3, -0.5, 1063, 3, -0.5
*EQUATION
5
1621, 1, 1.0, 1060, 1, -0.25, 1063, 1, -0.25, 1064, 1, -0.25, 1061, 1, -0.25
*EQUATION
5
1621, 2, 1.0, 1060, 2, -0.25, 1063, 2, -0.25, 1064, 2, -0.25, 1061, 2, -0.25
*EQUATION
5
1621, 3, 1.0, 1060, 3, -0.25, 1063, 3, -0.25, 1064, 3, -0.25, 1061, 3, -0.25
*EQUATION
3
1622, 1, 1.0, 1061, 1, -0.5, 1064, 1, -0.5
*EQUATION
3
1622, 2, 1.0, 1061, 2, -0.5, 1064, 2, -0.5
*EQUATION
3
1622, 3, 1.0, 1061, 3, -0.5, 1064, 3, -0.5
*EQUATION
3
1623, 1, 1.0, 1063, 1, -0.5, 1064, 1, -0.5
*EQUATION
3
1623, 2, 1.0, 1063, 2, -0.5, 1064, 2, -0.5
*EQUATION
3
1623, 3, 1.0, 1063, 3, -0.5, 1064, 3, -0.5
*EQUATION
3
1624, 1, 1.0, 1056, 1, -0.5, 1058, 1, -0.5
*EQUATION
3
1624, 2, 1.0, 1056, 2, -0.5, 1058, 2, -0.5
*EQUATION
3
1624, 3, 1.0, 1056, 3, -0.5, 1058, 3, -0.5
*EQUATION
3
1627, 1, 1.0, 47, 1, -0.5, 1058, 1, -0.5
*EQUATION
3
1627, 2, 1.0, 47, 2, -0.5, 1058, 2, -0.5
*EQUATION
3
1627, 3, 1.0, 47, 3, -0.5, 1058, 3, -0.5
*EQUATION
5
1628, 1, 1.0, 1056, 1, -0.25, 1063, 1, -0.25, 1066, 1, -0.25, 1058, 1, -0.25
*EQUATION
5
1628, 2, 1.0, 1056, 2, -0.25, 1063, 2, -0.25, 1066, 2, -0.25, 1058, 2, -0.25
*EQUATION
5
1628, 3, 1.0, 1056, 3, -0.25, 1063, 3, -0.25, 1066, 3, -0.25, 1058, 3, -0.25
*EQUATION
3
1631, 1, 1.0, 1058, 1, -0.5, 1066, 1, -0.5
*EQUATION
3
1631, 2, 1.0, 1058, 2, -0.5, 1066, 2, -0.5
*EQUATION
3
1631, 3, 1.0, 1058, 3, -0.5, 1066, 3, -0.5
*EQUATION
5
1632, 1, 1.0, 1058, 1, -0.25, 1066, 1, -0.25, 1067, 1, -0.25, 47, 1, -0.25
*EQUATION
5
1632, 2, 1.0, 1058, 2, -0.25, 1066, 2, -0.25, 1067, 2, -0.25, 47, 2, -0.25
*EQUATION
5
1632, 3, 1.0, 1058, 3, -0.25, 1066, 3, -0.25, 1067, 3, -0.25, 47, 3, -0.25
*EQUATION
3
1633, 1, 1.0, 47, 1, -0.5, 1067, 1, -0.5
*EQUATION
3
1633, 2, 1.0, 47, 2, -0.5, 1067, 2, -0.5
*EQUATION
3
1633, 3, 1.0, 47, 3, -0.5, 1067, 3, -0.5
*EQUATION
3
1634, 1, 1.0, 1063, 1, -0.5, 1066, 1, -0.5
*EQUATION
3
1634, 2, 1.0, 1063, 2, -0.5, 1066, 2, -0.5
*EQUATION
3
1634, 3, 1.0, 1063, 3, -0.5, 1066, 3, -0.5
*EQUATION
5
1635, 1, 1.0, 1063, 1, -0.25, 1066, 1, -0.25, 1067, 1, -0.25, 1064, 1, -0.25
*EQUATION
5
1635, 2, 1.0, 1063, 2, -0.25, 1066, 2, -0.25, 1067, 2, -0.25, 1064, 2, -0.25
*EQUATION
5
1635, 3, 1.0, 1063, 3, -0.25, 1066, 3, -0.25, 1067, 3, -0.25, 1064, 3, -0.25
*EQUATION
3
1636, 1, 1.0, 1064, 1, -0.5, 1067, 1, -0.5
*EQUATION
3
1636, 2, 1.0, 1064, 2, -0.5, 1067, 2, -0.5
*EQUATION
3
1636, 3, 1.0, 1064, 3, -0.5, 1067, 3, -0.5
*EQUATION
3
1637, 1, 1.0, 1066, 1, -0.5, 1067, 1, -0.5
*EQUATION
3
1637, 2, 1.0, 1066, 2, -0.5, 1067, 2, -0.5
*EQUATION
3
1637, 3, 1.0, 1066, 3, -0.5, 1067, 3, -0.5
*EQUATION
3
1638, 1, 1.0, 39, 1, -0.5, 49, 1, -0.5
*EQUATION
3
1638, 2, 1.0, 39, 2, -0.5, 49, 2, -0.5
*EQUATION
3
1638, 3, 1.0, 39, 3, -0.5, 49, 3, -0.5
*EQUATION
5
1639, 1, 1.0, 39, 1, -0.25, 49, 1, -0.25, 51, 1, -0.25, 43, 1, -0.25
*EQUATION
5
1639, 2, 1.0, 39, 2, -0.25, 49, 2, -0.25, 51, 2, -0.25, 43, 2, -0.25
*EQUATION
5
1639, 3, 1.0, 39, 3, -0.25, 49, 3, -0.25, 51, 3, -0.25, 43, 3, -0.25
*EQUATION
3
1640, 1, 1.0, 49, 1, -0.5, 51, 1, -0.5
*EQUATION
3
1640, 2, 1.0, 49, 2, -0.5, 51, 2, -0.5
*EQUATION
3
1640, 3, 1.0, 49, 3, -0.5, 51, 3, -0.5
*EQUATION
3
1645, 1, 1.0, 116, 1, -0.5, 121, 1, -0.5
*EQUATION
3
1645, 2, 1.0, 116, 2, -0.5, 121, 2, -0.5
*EQUATION
3
1645, 3, 1.0, 116, 3, -0.5, 121, 3, -0.5
*EQUATION
5
1646, 1, 1.0, 116, 1, -0.25, 121, 1, -0.25, 122, 1, -0.25, 118, 1, -0.25
*EQUATION
5
1646, 2, 1.0, 116, 2, -0.25, 121, 2, -0.25, 122, 2, -0.25, 118, 2, -0.25
*EQUATION
5
1646, 3, 1.0, 116, 3, -0.25, 121, 3, -0.25, 122, 3, -0.25, 118, 3, -0.25
*EQUATION
3
1647, 1, 1.0, 121, 1, -0.5, 122, 1, -0.5
*EQUATION
3
1647, 2, 1.0, 121, 2, -0.5, 122, 2, -0.5
*EQUATION
3
1647, 3, 1.0, 121, 3, -0.5, 122, 3, -0.5
*EQUATION
3
1648, 1, 1.0, 49, 1, -0.5, 55, 1, -0.5
*EQUATION
3
1648, 2, 1.0, 49, 2, -0.5, 55, 2, -0.5
*EQUATION
3
1648, 3, 1.0, 49, 3, -0.5, 55, 3, -0.5
*EQUATION
5
1649, 1, 1.0, 49, 1, -0.25, 55, 1, -0.25, 57, 1, -0.25, 51, 1, -0.25
*EQUATION
5
1649, 2, 1.0, 49, 2, -0.25, 55, 2, -0.25, 57, 2, -0.25, 51, 2, -0.25
*EQUATION
5
1649, 3, 1.0, 49, 3, -0.25, 55, 3, -0.25, 57, 3, -0.25, 51, 3, -0.25
*EQUATION
3
1650, 1, 1.0, 55, 1, -0.5, 57, 1, -0.5
*EQUATION
3
1650, 2, 1.0, 55, 2, -0.5, 57, 2, -0.5
*EQUATION
3
1650, 3, 1.0, 55, 3, -0.5, 57, 3, -0.5
*EQUATION
3
1655, 1, 1.0, 121, 1, -0.5, 124, 1, -0.5
*EQUATION
3
1655, 2, 1.0, 121, 2, -0.5, 124, 2, -0.5
*EQUATION
3
1655, 3, 1.0, 121, 3, -0.5, 124, 3, -0.5
*EQUATION
5
1656, 1, 1.0, 121, 1, -0.25, 124, 1, -0.25, 125, 1, -0.25, 122, 1, -0.25
*EQUATION
5
1656, 2, 1.0, 121, 2, -0.25, 124, 2, -0.25, 125, 2, -0.25, 122, 2, -0.25
*EQUATION
5
1656, 3, 1.0, 121, 3, -0.25, 124, 3, -0.25, 125, 3, -0.25, 122, 3, -0.25
*EQUATION
3
1657, 1, 1.0, 124, 1, -0.5, 125, 1, -0.5
*EQUATION
3
1657, 2, 1.0, 124, 2, -0.5, 125, 2, -0.5
*EQUATION
3
1657, 3, 1.0, 124, 3, -0.5, 125, 3, -0.5
*EQUATION
3
1658, 1, 1.0, 22, 1, -0.5, 55, 1, -0.5
*EQUATION
3
1658, 2, 1.0, 22, 2, -0.5, 55, 2, -0.5
*EQUATION
3
1658, 3, 1.0, 22, 3, -0.5, 55, 3, -0.5
*EQUATION
5
1659, 1, 1.0, 55, 1, -0.25, 22, 1, -0.25, 61, 1, -0.25, 57, 1, -0.25
*EQUATION
5
1659, 2, 1.0, 55, 2, -0.25, 22, 2, -0.25, 61, 2, -0.25, 57, 2, -0.25
*EQUATION
5
1659, 3, 1.0, 55, 3, -0.25, 22, 3, -0.25, 61, 3, -0.25, 57, 3, -0.25
*EQUATION
3
1660, 1, 1.0, 22, 1, -0.5, 61, 1, -0.5
*EQUATION
3
1660, 2, 1.0, 22, 2, -0.5, 61, 2, -0.5
*EQUATION
3
1660, 3, 1.0, 22, 3, -0.5, 61, 3, -0.5
*EQUATION
3
1664, 1, 1.0, 107, 1, -0.5, 124, 1, -0.5
*EQUATION
3
1664, 2, 1.0, 107, 2, -0.5, 124, 2, -0.5
*EQUATION
3
1664, 3, 1.0, 107, 3, -0.5, 124, 3, -0.5
*EQUATION
5
1665, 1, 1.0, 124, 1, -0.25, 107, 1, -0.25, 127, 1, -0.25, 125, 1, -0.25
*EQUATION
5
1665, 2, 1.0, 124, 2, -0.25, 107, 2, -0.25, 127, 2, -0.25, 125, 2, -0.25
*EQUATION
5
1665, 3, 1.0, 124, 3, -0.25, 107, 3, -0.25, 127, 3, -0.25, 125, 3, -0.25
*EQUATION
3
1666, 1, 1.0, 107, 1, -0.5, 127, 1, -0.5
*EQUATION
3
1666, 2, 1.0, 107, 2, -0.5, 127, 2, -0.5
*EQUATION
3
1666, 3, 1.0, 107, 3, -0.5, 127, 3, -0.5
*EQUATION
5
1667, 1, 1.0, 22, 1, -0.25, 23, 1, -0.25, 65, 1, -0.25, 61, 1, -0.25
*EQUATION
5
1667, 2, 1.0, 22, 2, -0.25, 23, 2, -0.25, 65, 2, -0.25, 61, 2, -0.25
*EQUATION
5
1667, 3, 1.0, 22, 3, -0.25, 23, 3, -0.25, 65, 3, -0.25, 61, 3, -0.25
*EQUATION
3
1668, 1, 1.0, 61, 1, -0.5, 65, 1, -0.5
*EQUATION
3
1668, 2, 1.0, 61, 2, -0.5, 65, 2, -0.5
*EQUATION
3
1668, 3, 1.0, 61, 3, -0.5, 65, 3, -0.5
*EQUATION
3
1669, 1, 1.0, 23, 1, -0.5, 65, 1, -0.5
*EQUATION
3
1669, 2, 1.0, 23, 2, -0.5, 65, 2, -0.5
*EQUATION
3
1669, 3, 1.0, 23, 3, -0.5, 65, 3, -0.5
*EQUATION
5
1672, 1, 1.0, 23, 1, -0.25, 108, 1, -0.25, 129, 1, -0.25, 65, 1, -0.25
*EQUATION
5
1672, 2, 1.0, 23, 2, -0.25, 108, 2, -0.25, 129, 2, -0.25, 65, 2, -0.25
*EQUATION
5
1672, 3, 1.0, 23, 3, -0.25, 108, 3, -0.25, 129, 3, -0.25, 65, 3, -0.25
*EQUATION
3
1673, 1, 1.0, 65, 1, -0.5, 129, 1, -0.5
*EQUATION
3
1673, 2, 1.0, 65, 2, -0.5, 129, 2, -0.5
*EQUATION
3
1673, 3, 1.0, 65, 3, -0.5, 129, 3, -0.5
*EQUATION
5
1674, 1, 1.0, 107, 1, -0.25, 108, 1, -0.25, 129, 1, -0.25, 127, 1, -0.25
*EQUATION
5
1674, 2, 1.0, 107, 2, -0.25, 108, 2, -0.25, 129, 2, -0.25, 127, 2, -0.25
*EQUATION
5
1674, 3, 1.0, 107, 3, -0.25, 108, 3, -0.25, 129, 3, -0.25, 127, 3, -0.25
*EQUATION
3
1675, 1, 1.0, 127, 1, -0.5, 129, 1, -0.5
*EQUATION
3
1675, 2, 1.0, 127, 2, -0.5, 129, 2, -0.5
*EQUATION
3
1675, 3, 1.0, 127, 3, -0.5, 129, 3, -0.5
*EQUATION
3
1676, 1, 1.0, 108, 1, -0.5, 129, 1, -0.5
*EQUATION
3
1676, 2, 1.0, 108, 2, -0.5, 129, 2, -0.5
*EQUATION
3
1676, 3, 1.0, 108, 3, -0.5, 129, 3, -0.5
*EQUATION
5
1677, 1, 1.0, 61, 1, -0.25, 65, 1, -0.25, 67, 1, -0.25, 63, 1, -0.25
*EQUATION
5
1677, 2, 1.0, 61, 2, -0.25, 65, 2, -0.25, 67, 2, -0.25, 63, 2, -0.25
*EQUATION
5
1677, 3, 1.0, 61, 3, -0.25, 65, 3, -0.25, 67, 3, -0.25, 63, 3, -0.25
*EQUATION
3
1678, 1, 1.0, 63, 1, -0.5, 67, 1, -0.5
*EQUATION
3
1678, 2, 1.0, 63, 2, -0.5, 67, 2, -0.5
*EQUATION
3
1678, 3, 1.0, 63, 3, -0.5, 67, 3, -0.5
*EQUATION
3
1679, 1, 1.0, 65, 1, -0.5, 67, 1, -0.5
*EQUATION
3
1679, 2, 1.0, 65, 2, -0.5, 67, 2, -0.5
*EQUATION
3
1679, 3, 1.0, 65, 3, -0.5, 67, 3, -0.5
*EQUATION
5
1684, 1, 1.0, 127, 1, -0.25, 129, 1, -0.25, 130, 1, -0.25, 128, 1, -0.25
*EQUATION
5
1684, 2, 1.0, 127, 2, -0.25, 129, 2, -0.25, 130, 2, -0.25, 128, 2, -0.25
*EQUATION
5
1684, 3, 1.0, 127, 3, -0.25, 129, 3, -0.25, 130, 3, -0.25, 128, 3, -0.25
*EQUATION
3
1685, 1, 1.0, 128, 1, -0.5, 130, 1, -0.5
*EQUATION
3
1685, 2, 1.0, 128, 2, -0.5, 130, 2, -0.5
*EQUATION
3
1685, 3, 1.0, 128, 3, -0.5, 130, 3, -0.5
*EQUATION
3
1686, 1, 1.0, 129, 1, -0.5, 130, 1, -0.5
*EQUATION
3
1686, 2, 1.0, 129, 2, -0.5, 130, 2, -0.5
*EQUATION
3
1686, 3, 1.0, 129, 3, -0.5, 130, 3, -0.5
*EQUATION
3
1687, 1, 1.0, 65, 1, -0.5, 69, 1, -0.5
*EQUATION
3
1687, 2, 1.0, 65, 2, -0.5, 69, 2, -0.5
*EQUATION
3
1687, 3, 1.0, 65, 3, -0.5, 69, 3, -0.5
*EQUATION
5
1688, 1, 1.0, 65, 1, -0.25, 69, 1, -0.25, 71, 1, -0.25, 67, 1, -0.25
*EQUATION
5
1688, 2, 1.0, 65, 2, -0.25, 69, 2, -0.25, 71, 2, -0.25, 67, 2, -0.25
*EQUATION
5
1688, 3, 1.0, 65, 3, -0.25, 69, 3, -0.25, 71, 3, -0.25, 67, 3, -0.25
*EQUATION
3
1689, 1, 1.0, 67, 1, -0.5, 71, 1, -0.5
*EQUATION
3
1689, 2, 1.0, 67, 2, -0.5, 71, 2, -0.5
*EQUATION
3
1689, 3, 1.0, 67, 3, -0.5, 71, 3, -0.5
*EQUATION
5
1690, 1, 1.0, 65, 1, -0.25, 129, 1, -0.25, 131, 1, -0.25, 69, 1, -0.25
*EQUATION
5
1690, 2, 1.0, 65, 2, -0.25, 129, 2, -0.25, 131, 2, -0.25, 69, 2, -0.25
*EQUATION
5
1690, 3, 1.0, 65, 3, -0.25, 129, 3, -0.25, 131, 3, -0.25, 69, 3, -0.25
*EQUATION
3
1693, 1, 1.0, 129, 1, -0.5, 131, 1, -0.5
*EQUATION
3
1693, 2, 1.0, 129, 2, -0.5, 131, 2, -0.5
*EQUATION
3
1693, 3, 1.0, 129, 3, -0.5, 131, 3, -0.5
*EQUATION
5
1694, 1, 1.0, 129, 1, -0.25, 131, 1, -0.25, 132, 1, -0.25, 130, 1, -0.25
*EQUATION
5
1694, 2, 1.0, 129, 2, -0.25, 131, 2, -0.25, 132, 2, -0.25, 130, 2, -0.25
*EQUATION
5
1694, 3, 1.0, 129, 3, -0.25, 131, 3, -0.25, 132, 3, -0.25, 130, 3, -0.25
*EQUATION
3
1695, 1, 1.0, 130, 1, -0.5, 132, 1, -0.5
*EQUATION
3
1695, 2, 1.0, 130, 2, -0.5, 132, 2, -0.5
*EQUATION
3
1695, 3, 1.0, 130, 3, -0.5, 132, 3, -0.5
*EQUATION
3
1696, 1, 1.0, 35, 1, -0.5, 69, 1, -0.5
*EQUATION
3
1696, 2, 1.0, 35, 2, -0.5, 69, 2, -0.5
*EQUATION
3
1696, 3, 1.0, 35, 3, -0.5, 69, 3, -0.5
*EQUATION
3
1697, 1, 1.0, 35, 1, -0.5, 73, 1, -0.5
*EQUATION
3
1697, 2, 1.0, 35, 2, -0.5, 73, 2, -0.5
*EQUATION
3
1697, 3, 1.0, 35, 3, -0.5, 73, 3, -0.5
*EQUATION
5
1698, 1, 1.0, 35, 1, -0.25, 73, 1, -0.25, 75, 1, -0.25, 69, 1, -0.25
*EQUATION
5
1698, 2, 1.0, 35, 2, -0.25, 73, 2, -0.25, 75, 2, -0.25, 69, 2, -0.25
*EQUATION
5
1698, 3, 1.0, 35, 3, -0.25, 73, 3, -0.25, 75, 3, -0.25, 69, 3, -0.25
*EQUATION
3
1699, 1, 1.0, 73, 1, -0.5, 75, 1, -0.5
*EQUATION
3
1699, 2, 1.0, 73, 2, -0.5, 75, 2, -0.5
*EQUATION
3
1699, 3, 1.0, 73, 3, -0.5, 75, 3, -0.5
*EQUATION
5
1700, 1, 1.0, 35, 1, -0.25, 114, 1, -0.25, 131, 1, -0.25, 69, 1, -0.25
*EQUATION
5
1700, 2, 1.0, 35, 2, -0.25, 114, 2, -0.25, 131, 2, -0.25, 69, 2, -0.25
*EQUATION
5
1700, 3, 1.0, 35, 3, -0.25, 114, 3, -0.25, 131, 3, -0.25, 69, 3, -0.25
*EQUATION
3
1705, 1, 1.0, 114, 1, -0.5, 131, 1, -0.5
*EQUATION
3
1705, 2, 1.0, 114, 2, -0.5, 131, 2, -0.5
*EQUATION
3
1705, 3, 1.0, 114, 3, -0.5, 131, 3, -0.5
*EQUATION
3
1706, 1, 1.0, 114, 1, -0.5, 133, 1, -0.5
*EQUATION
3
1706, 2, 1.0, 114, 2, -0.5, 133, 2, -0.5
*EQUATION
3
1706, 3, 1.0, 114, 3, -0.5, 133, 3, -0.5
*EQUATION
5
1707, 1, 1.0, 114, 1, -0.25, 133, 1, -0.25, 134, 1, -0.25, 131, 1, -0.25
*EQUATION
5
1707, 2, 1.0, 114, 2, -0.25, 133, 2, -0.25, 134, 2, -0.25, 131, 2, -0.25
*EQUATION
5
1707, 3, 1.0, 114, 3, -0.25, 133, 3, -0.25, 134, 3, -0.25, 131, 3, -0.25
*EQUATION
3
1708, 1, 1.0, 133, 1, -0.5, 134, 1, -0.5
*EQUATION
3
1708, 2, 1.0, 133, 2, -0.5, 134, 2, -0.5
*EQUATION
3
1708, 3, 1.0, 133, 3, -0.5, 134, 3, -0.5
*EQUATION
3
1709, 1, 1.0, 73, 1, -0.5, 79, 1, -0.5
*EQUATION
3
1709, 2, 1.0, 73, 2, -0.5, 79, 2, -0.5
*EQUATION
3
1709, 3, 1.0, 73, 3, -0.5, 79, 3, -0.5
*EQUATION
5
1710, 1, 1.0, 73, 1, -0.25, 79, 1, -0.25, 81, 1, -0.25, 75, 1, -0.25
*EQUATION
5
1710, 2, 1.0, 73, 2, -0.25, 79, 2, -0.25, 81, 2, -0.25, 75, 2, -0.25
*EQUATION
5
1710, 3, 1.0, 73, 3, -0.25, 79, 3, -0.25, 81, 3, -0.25, 75, 3, -0.25
*EQUATION
3
1711, 1, 1.0, 79, 1, -0.5, 81, 1, -0.5
*EQUATION
3
1711, 2, 1.0, 79, 2, -0.5, 81, 2, -0.5
*EQUATION
3
1711, 3, 1.0, 79, 3, -0.5, 81, 3, -0.5
*EQUATION
3
1716, 1, 1.0, 133, 1, -0.5, 136, 1, -0.5
*EQUATION
3
1716, 2, 1.0, 133, 2, -0.5, 136, 2, -0.5
*EQUATION
3
1716, 3, 1.0, 133, 3, -0.5, 136, 3, -0.5
*EQUATION
5
1717, 1, 1.0, 133, 1, -0.25, 136, 1, -0.25, 137, 1, -0.25, 134, 1, -0.25
*EQUATION
5
1717, 2, 1.0, 133, 2, -0.25, 136, 2, -0.25, 137, 2, -0.25, 134, 2, -0.25
*EQUATION
5
1717, 3, 1.0, 133, 3, -0.25, 136, 3, -0.25, 137, 3, -0.25, 134, 3, -0.25
*EQUATION
3
1718, 1, 1.0, 136, 1, -0.5, 137, 1, -0.5
*EQUATION
3
1718, 2, 1.0, 136, 2, -0.5, 137, 2, -0.5
*EQUATION
3
1718, 3, 1.0, 136, 3, -0.5, 137, 3, -0.5
*EQUATION
3
1719, 1, 1.0, 79, 1, -0.5, 85, 1, -0.5
*EQUATION
3
1719, 2, 1.0, 79, 2, -0.5, 85, 2, -0.5
*EQUATION
3
1719, 3, 1.0, 79, 3, -0.5, 85, 3, -0.5
*EQUATION
5
1720, 1, 1.0, 79, 1, -0.25, 85, 1, -0.25, 87, 1, -0.25, 81, 1, -0.25
*EQUATION
5
1720, 2, 1.0, 79, 2, -0.25, 85, 2, -0.25, 87, 2, -0.25, 81, 2, -0.25
*EQUATION
5
1720, 3, 1.0, 79, 3, -0.25, 85, 3, -0.25, 87, 3, -0.25, 81, 3, -0.25
*EQUATION
3
1721, 1, 1.0, 85, 1, -0.5, 87, 1, -0.5
*EQUATION
3
1721, 2, 1.0, 85, 2, -0.5, 87, 2, -0.5
*EQUATION
3
1721, 3, 1.0, 85, 3, -0.5, 87, 3, -0.5
*EQUATION
3
1726, 1, 1.0, 136, 1, -0.5, 139, 1, -0.5
*EQUATION
3
1726, 2, 1.0, 136, 2, -0.5, 139, 2, -0.5
*EQUATION
3
1726, 3, 1.0, 136, 3, -0.5, 139, 3, -0.5
*EQUATION
5
1727, 1, 1.0, 136, 1, -0.25, 139, 1, -0.25, 140, 1, -0.25, 137, 1, -0.25
*EQUATION
5
1727, 2, 1.0, 136, 2, -0.25, 139, 2, -0.25, 140, 2, -0.25, 137, 2, -0.25
*EQUATION
5
1727, 3, 1.0, 136, 3, -0.25, 139, 3, -0.25, 140, 3, -0.25, 137, 3, -0.25
*EQUATION
3
1728, 1, 1.0, 139, 1, -0.5, 140, 1, -0.5
*EQUATION
3
1728, 2, 1.0, 139, 2, -0.5, 140, 2, -0.5
*EQUATION
3
1728, 3, 1.0, 139, 3, -0.5, 140, 3, -0.5
*EQUATION
3
1729, 1, 1.0, 85, 1, -0.5, 91, 1, -0.5
*EQUATION
3
1729, 2, 1.0, 85, 2, -0.5, 91, 2, -0.5
*EQUATION
3
1729, 3, 1.0, 85, 3, -0.5, 91, 3, -0.5
*EQUATION
5
1730, 1, 1.0, 85, 1, -0.25, 91, 1, -0.25, 93, 1, -0.25, 87, 1, -0.25
*EQUATION
5
1730, 2, 1.0, 85, 2, -0.25, 91, 2, -0.25, 93, 2, -0.25, 87, 2, -0.25
*EQUATION
5
1730, 3, 1.0, 85, 3, -0.25, 91, 3, -0.25, 93, 3, -0.25, 87, 3, -0.25
*EQUATION
3
1731, 1, 1.0, 91, 1, -0.5, 93, 1, -0.5
*EQUATION
3
1731, 2, 1.0, 91, 2, -0.5, 93, 2, -0.5
*EQUATION
3
1731, 3, 1.0, 91, 3, -0.5, 93, 3, -0.5
*EQUATION
3
1736, 1, 1.0, 139, 1, -0.5, 142, 1, -0.5
*EQUATION
3
1736, 2, 1.0, 139, 2, -0.5, 142, 2, -0.5
*EQUATION
3
1736, 3, 1.0, 139, 3, -0.5, 142, 3, -0.5
*EQUATION
5
1737, 1, 1.0, 139, 1, -0.25, 142, 1, -0.25, 143, 1, -0.25, 140, 1, -0.25
*EQUATION
5
1737, 2, 1.0, 139, 2, -0.25, 142, 2, -0.25, 143, 2, -0.25, 140, 2, -0.25
*EQUATION
5
1737, 3, 1.0, 139, 3, -0.25, 142, 3, -0.25, 143, 3, -0.25, 140, 3, -0.25
*EQUATION
3
1738, 1, 1.0, 142, 1, -0.5, 143, 1, -0.5
*EQUATION
3
1738, 2, 1.0, 142, 2, -0.5, 143, 2, -0.5
*EQUATION
3
1738, 3, 1.0, 142, 3, -0.5, 143, 3, -0.5
*EQUATION
3
1739, 1, 1.0, 89, 1, -0.5, 1151, 1, -0.5
*EQUATION
3
1739, 2, 1.0, 89, 2, -0.5, 1151, 2, -0.5
*EQUATION
3
1739, 3, 1.0, 89, 3, -0.5, 1151, 3, -0.5
*EQUATION
3
1740, 1, 1.0, 1151, 1, -0.5, 1163, 1, -0.5
*EQUATION
3
1740, 2, 1.0, 1151, 2, -0.5, 1163, 2, -0.5
*EQUATION
3
1740, 3, 1.0, 1151, 3, -0.5, 1163, 3, -0.5
*EQUATION
3
1744, 1, 1.0, 1151, 1, -0.5, 1156, 1, -0.5
*EQUATION
3
1744, 2, 1.0, 1151, 2, -0.5, 1156, 2, -0.5
*EQUATION
3
1744, 3, 1.0, 1151, 3, -0.5, 1156, 3, -0.5
*EQUATION
5
1745, 1, 1.0, 1151, 1, -0.25, 1156, 1, -0.25, 1157, 1, -0.25, 89, 1, -0.25
*EQUATION
5
1745, 2, 1.0, 1151, 2, -0.25, 1156, 2, -0.25, 1157, 2, -0.25, 89, 2, -0.25
*EQUATION
5
1745, 3, 1.0, 1151, 3, -0.25, 1156, 3, -0.25, 1157, 3, -0.25, 89, 3, -0.25
*EQUATION
3
1746, 1, 1.0, 89, 1, -0.5, 1157, 1, -0.5
*EQUATION
3
1746, 2, 1.0, 89, 2, -0.5, 1157, 2, -0.5
*EQUATION
3
1746, 3, 1.0, 89, 3, -0.5, 1157, 3, -0.5
*EQUATION
5
1747, 1, 1.0, 1151, 1, -0.25, 1156, 1, -0.25, 1167, 1, -0.25, 1163, 1, -0.25
*EQUATION
5
1747, 2, 1.0, 1151, 2, -0.25, 1156, 2, -0.25, 1167, 2, -0.25, 1163, 2, -0.25
*EQUATION
5
1747, 3, 1.0, 1151, 3, -0.25, 1156, 3, -0.25, 1167, 3, -0.25, 1163, 3, -0.25
*EQUATION
3
1750, 1, 1.0, 1163, 1, -0.5, 1167, 1, -0.5
*EQUATION
3
1750, 2, 1.0, 1163, 2, -0.5, 1167, 2, -0.5
*EQUATION
3
1750, 3, 1.0, 1163, 3, -0.5, 1167, 3, -0.5
*EQUATION
3
1753, 1, 1.0, 1156, 1, -0.5, 1157, 1, -0.5
*EQUATION
3
1753, 2, 1.0, 1156, 2, -0.5, 1157, 2, -0.5
*EQUATION
3
1753, 3, 1.0, 1156, 3, -0.5, 1157, 3, -0.5
*EQUATION
3
1754, 1, 1.0, 1156, 1, -0.5, 1167, 1, -0.5
*EQUATION
3
1754, 2, 1.0, 1156, 2, -0.5, 1167, 2, -0.5
*EQUATION
3
1754, 3, 1.0, 1156, 3, -0.5, 1167, 3, -0.5
*EQUATION
5
1755, 1, 1.0, 1156, 1, -0.25, 1167, 1, -0.25, 1168, 1, -0.25, 1157, 1, -0.25
*EQUATION
5
1755, 2, 1.0, 1156, 2, -0.25, 1167, 2, -0.25, 1168, 2, -0.25, 1157, 2, -0.25
*EQUATION
5
1755, 3, 1.0, 1156, 3, -0.25, 1167, 3, -0.25, 1168, 3, -0.25, 1157, 3, -0.25
*EQUATION
3
1756, 1, 1.0, 1157, 1, -0.5, 1168, 1, -0.5
*EQUATION
3
1756, 2, 1.0, 1157, 2, -0.5, 1168, 2, -0.5
*EQUATION
3
1756, 3, 1.0, 1157, 3, -0.5, 1168, 3, -0.5
*EQUATION
3
1757, 1, 1.0, 1167, 1, -0.5, 1168, 1, -0.5
*EQUATION
3
1757, 2, 1.0, 1167, 2, -0.5, 1168, 2, -0.5
*EQUATION
3
1757, 3, 1.0, 1167, 3, -0.5, 1168, 3, -0.5
*EQUATION
3
1758, 1, 1.0, 1163, 1, -0.5, 1165, 1, -0.5
*EQUATION
3
1758, 2, 1.0, 1163, 2, -0.5, 1165, 2, -0.5
*EQUATION
3
1758, 3, 1.0, 1163, 3, -0.5, 1165, 3, -0.5
*EQUATION
5
1762, 1, 1.0, 1163, 1, -0.25, 1167, 1, -0.25, 1170, 1, -0.25, 1165, 1, -0.25
*EQUATION
5
1762, 2, 1.0, 1163, 2, -0.25, 1167, 2, -0.25, 1170, 2, -0.25, 1165, 2, -0.25
*EQUATION
5
1762, 3, 1.0, 1163, 3, -0.25, 1167, 3, -0.25, 1170, 3, -0.25, 1165, 3, -0.25
*EQUATION
3
1765, 1, 1.0, 1165, 1, -0.5, 1170, 1, -0.5
*EQUATION
3
1765, 2, 1.0, 1165, 2, -0.5, 1170, 2, -0.5
*EQUATION
3
1765, 3, 1.0, 1165, 3, -0.5, 1170, 3, -0.5
*EQUATION
3
1768, 1, 1.0, 1167, 1, -0.5, 1170, 1, -0.5
*EQUATION
3
1768, 2, 1.0, 1167, 2, -0.5, 1170, 2, -0.5
*EQUATION
3
1768, 3, 1.0, 1167, 3, -0.5, 1170, 3, -0.5
*EQUATION
5
1769, 1, 1.0, 1167, 1, -0.25, 1170, 1, -0.25, 1171, 1, -0.25, 1168, 1, -0.25
*EQUATION
5
1769, 2, 1.0, 1167, 2, -0.25, 1170, 2, -0.25, 1171, 2, -0.25, 1168, 2, -0.25
*EQUATION
5
1769, 3, 1.0, 1167, 3, -0.25, 1170, 3, -0.25, 1171, 3, -0.25, 1168, 3, -0.25
*EQUATION
3
1770, 1, 1.0, 1168, 1, -0.5, 1171, 1, -0.5
*EQUATION
3
1770, 2, 1.0, 1168, 2, -0.5, 1171, 2, -0.5
*EQUATION
3
1770, 3, 1.0, 1168, 3, -0.5, 1171, 3, -0.5
*EQUATION
3
1771, 1, 1.0, 1170, 1, -0.5, 1171, 1, -0.5
*EQUATION
3
1771, 2, 1.0, 1170, 2, -0.5, 1171, 2, -0.5
*EQUATION
3
1771, 3, 1.0, 1170, 3, -0.5, 1171, 3, -0.5
*EQUATION
3
1772, 1, 1.0, 1176, 1, -0.5, 1177, 1, -0.5
*EQUATION
3
1772, 2, 1.0, 1176, 2, -0.5, 1177, 2, -0.5
*EQUATION
3
1772, 3, 1.0, 1176, 3, -0.5, 1177, 3, -0.5
*EQUATION
3
1773, 1, 1.0, 1176, 1, -0.5, 1179, 1, -0.5
*EQUATION
3
1773, 2, 1.0, 1176, 2, -0.5, 1179, 2, -0.5
*EQUATION
3
1773, 3, 1.0, 1176, 3, -0.5, 1179, 3, -0.5
*EQUATION
5
1774, 1, 1.0, 1176, 1, -0.25, 1179, 1, -0.25, 1180, 1, -0.25, 1177, 1, -0.25
*EQUATION
5
1774, 2, 1.0, 1176, 2, -0.25, 1179, 2, -0.25, 1180, 2, -0.25, 1177, 2, -0.25
*EQUATION
5
1774, 3, 1.0, 1176, 3, -0.25, 1179, 3, -0.25, 1180, 3, -0.25, 1177, 3, -0.25
*EQUATION
3
1775, 1, 1.0, 1177, 1, -0.5, 1180, 1, -0.5
*EQUATION
3
1775, 2, 1.0, 1177, 2, -0.5, 1180, 2, -0.5
*EQUATION
3
1775, 3, 1.0, 1177, 3, -0.5, 1180, 3, -0.5
*EQUATION
3
1776, 1, 1.0, 1179, 1, -0.5, 1180, 1, -0.5
*EQUATION
3
1776, 2, 1.0, 1179, 2, -0.5, 1180, 2, -0.5
*EQUATION
3
1776, 3, 1.0, 1179, 3, -0.5, 1180, 3, -0.5
*EQUATION
3
1779, 1, 1.0, 1177, 1, -0.5, 1185, 1, -0.5
*EQUATION
3
1779, 2, 1.0, 1177, 2, -0.5, 1185, 2, -0.5
*EQUATION
3
1779, 3, 1.0, 1177, 3, -0.5, 1185, 3, -0.5
*EQUATION
5
1782, 1, 1.0, 1177, 1, -0.25, 1185, 1, -0.25, 1187, 1, -0.25, 1180, 1, -0.25
*EQUATION
5
1782, 2, 1.0, 1177, 2, -0.25, 1185, 2, -0.25, 1187, 2, -0.25, 1180, 2, -0.25
*EQUATION
5
1782, 3, 1.0, 1177, 3, -0.25, 1185, 3, -0.25, 1187, 3, -0.25, 1180, 3, -0.25
*EQUATION
3
1785, 1, 1.0, 1180, 1, -0.5, 1187, 1, -0.5
*EQUATION
3
1785, 2, 1.0, 1180, 2, -0.5, 1187, 2, -0.5
*EQUATION
3
1785, 3, 1.0, 1180, 3, -0.5, 1187, 3, -0.5
*EQUATION
3
1789, 1, 1.0, 1185, 1, -0.5, 1187, 1, -0.5
*EQUATION
3
1789, 2, 1.0, 1185, 2, -0.5, 1187, 2, -0.5
*EQUATION
3
1789, 3, 1.0, 1185, 3, -0.5, 1187, 3, -0.5
*EQUATION
3
1791, 1, 1.0, 1179, 1, -0.5, 1182, 1, -0.5
*EQUATION
3
1791, 2, 1.0, 1179, 2, -0.5, 1182, 2, -0.5
*EQUATION
3
1791, 3, 1.0, 1179, 3, -0.5, 1182, 3, -0.5
*EQUATION
5
1792, 1, 1.0, 1179, 1, -0.25, 1182, 1, -0.25, 1183, 1, -0.25, 1180, 1, -0.25
*EQUATION
5
1792, 2, 1.0, 1179, 2, -0.25, 1182, 2, -0.25, 1183, 2, -0.25, 1180, 2, -0.25
*EQUATION
5
1792, 3, 1.0, 1179, 3, -0.25, 1182, 3, -0.25, 1183, 3, -0.25, 1180, 3, -0.25
*EQUATION
3
1793, 1, 1.0, 1180, 1, -0.5, 1183, 1, -0.5
*EQUATION
3
1793, 2, 1.0, 1180, 2, -0.5, 1183, 2, -0.5
*EQUATION
3
1793, 3, 1.0, 1180, 3, -0.5, 1183, 3, -0.5
*EQUATION
3
1794, 1, 1.0, 1182, 1, -0.5, 1183, 1, -0.5
*EQUATION
3
1794, 2, 1.0, 1182, 2, -0.5, 1183, 2, -0.5
*EQUATION
3
1794, 3, 1.0, 1182, 3, -0.5, 1183, 3, -0.5
*EQUATION
5
1797, 1, 1.0, 1180, 1, -0.25, 1187, 1, -0.25, 1189, 1, -0.25, 1183, 1, -0.25
*EQUATION
5
1797, 2, 1.0, 1180, 2, -0.25, 1187, 2, -0.25, 1189, 2, -0.25, 1183, 2, -0.25
*EQUATION
5
1797, 3, 1.0, 1180, 3, -0.25, 1187, 3, -0.25, 1189, 3, -0.25, 1183, 3, -0.25
*EQUATION
3
1800, 1, 1.0, 1183, 1, -0.5, 1189, 1, -0.5
*EQUATION
3
1800, 2, 1.0, 1183, 2, -0.5, 1189, 2, -0.5
*EQUATION
3
1800, 3, 1.0, 1183, 3, -0.5, 1189, 3, -0.5
*EQUATION
3
1803, 1, 1.0, 1187, 1, -0.5, 1189, 1, -0.5
*EQUATION
3
1803, 2, 1.0, 1187, 2, -0.5, 1189, 2, -0.5
*EQUATION
3
1803, 3, 1.0, 1187, 3, -0.5, 1189, 3, -0.5
*EQUATION
3
1806, 1, 1.0, 101, 1, -0.5, 149, 1, -0.5
*EQUATION
3
1806, 2, 1.0, 101, 2, -0.5, 149, 2, -0.5
*EQUATION
3
1806, 3, 1.0, 101, 3, -0.5, 149, 3, -0.5
*EQUATION
5
1808, 1, 1.0, 101, 1, -0.25, 149, 1, -0.25, 150, 1, -0.25, 102, 1, -0.25
*EQUATION
5
1808, 2, 1.0, 101, 2, -0.25, 149, 2, -0.25, 150, 2, -0.25, 102, 2, -0.25
*EQUATION
5
1808, 3, 1.0, 101, 3, -0.25, 149, 3, -0.25, 150, 3, -0.25, 102, 3, -0.25
*EQUATION
3
1810, 1, 1.0, 102, 1, -0.5, 150, 1, -0.5
*EQUATION
3
1810, 2, 1.0, 102, 2, -0.5, 150, 2, -0.5
*EQUATION
3
1810, 3, 1.0, 102, 3, -0.5, 150, 3, -0.5
*EQUATION
3
1813, 1, 1.0, 149, 1, -0.5, 150, 1, -0.5
*EQUATION
3
1813, 2, 1.0, 149, 2, -0.5, 150, 2, -0.5
*EQUATION
3
1813, 3, 1.0, 149, 3, -0.5, 150, 3, -0.5
*EQUATION
3
1815, 1, 1.0, 1182, 1, -0.5, 1190, 1, -0.5
*EQUATION
3
1815, 2, 1.0, 1182, 2, -0.5, 1190, 2, -0.5
*EQUATION
3
1815, 3, 1.0, 1182, 3, -0.5, 1190, 3, -0.5
*EQUATION
5
1816, 1, 1.0, 1182, 1, -0.25, 1190, 1, -0.25, 1191, 1, -0.25, 1183, 1, -0.25
*EQUATION
5
1816, 2, 1.0, 1182, 2, -0.25, 1190, 2, -0.25, 1191, 2, -0.25, 1183, 2, -0.25
*EQUATION
5
1816, 3, 1.0, 1182, 3, -0.25, 1190, 3, -0.25, 1191, 3, -0.25, 1183, 3, -0.25
*EQUATION
3
1817, 1, 1.0, 1183, 1, -0.5, 1191, 1, -0.5
*EQUATION
3
1817, 2, 1.0, 1183, 2, -0.5, 1191, 2, -0.5
*EQUATION
3
1817, 3, 1.0, 1183, 3, -0.5, 1191, 3, -0.5
*EQUATION
3
1818, 1, 1.0, 1190, 1, -0.5, 1191, 1, -0.5
*EQUATION
3
1818, 2, 1.0, 1190, 2, -0.5, 1191, 2, -0.5
*EQUATION
3
1818, 3, 1.0, 1190, 3, -0.5, 1191, 3, -0.5
*EQUATION
5
1821, 1, 1.0, 1183, 1, -0.25, 1189, 1, -0.25, 1197, 1, -0.25, 1191, 1, -0.25
*EQUATION
5
1821, 2, 1.0, 1183, 2, -0.25, 1189, 2, -0.25, 1197, 2, -0.25, 1191, 2, -0.25
*EQUATION
5
1821, 3, 1.0, 1183, 3, -0.25, 1189, 3, -0.25, 1197, 3, -0.25, 1191, 3, -0.25
*EQUATION
3
1824, 1, 1.0, 1191, 1, -0.5, 1197, 1, -0.5
*EQUATION
3
1824, 2, 1.0, 1191, 2, -0.5, 1197, 2, -0.5
*EQUATION
3
1824, 3, 1.0, 1191, 3, -0.5, 1197, 3, -0.5
*EQUATION
3
1827, 1, 1.0, 1189, 1, -0.5, 1197, 1, -0.5
*EQUATION
3
1827, 2, 1.0, 1189, 2, -0.5, 1197, 2, -0.5
*EQUATION
3
1827, 3, 1.0, 1189, 3, -0.5, 1197, 3, -0.5
*EQUATION
3
1829, 1, 1.0, 1190, 1, -0.5, 1193, 1, -0.5
*EQUATION
3
1829, 2, 1.0, 1190, 2, -0.5, 1193, 2, -0.5
*EQUATION
3
1829, 3, 1.0, 1190, 3, -0.5, 1193, 3, -0.5
*EQUATION
5
1830, 1, 1.0, 1190, 1, -0.25, 1193, 1, -0.25, 1194, 1, -0.25, 1191, 1, -0.25
*EQUATION
5
1830, 2, 1.0, 1190, 2, -0.25, 1193, 2, -0.25, 1194, 2, -0.25, 1191, 2, -0.25
*EQUATION
5
1830, 3, 1.0, 1190, 3, -0.25, 1193, 3, -0.25, 1194, 3, -0.25, 1191, 3, -0.25
*EQUATION
3
1831, 1, 1.0, 1191, 1, -0.5, 1194, 1, -0.5
*EQUATION
3
1831, 2, 1.0, 1191, 2, -0.5, 1194, 2, -0.5
*EQUATION
3
1831, 3, 1.0, 1191, 3, -0.5, 1194, 3, -0.5
*EQUATION
3
1832, 1, 1.0, 1193, 1, -0.5, 1194, 1, -0.5
*EQUATION
3
1832, 2, 1.0, 1193, 2, -0.5, 1194, 2, -0.5
*EQUATION
3
1832, 3, 1.0, 1193, 3, -0.5, 1194, 3, -0.5
*EQUATION
5
1835, 1, 1.0, 1191, 1, -0.25, 1197, 1, -0.25, 1199, 1, -0.25, 1194, 1, -0.25
*EQUATION
5
1835, 2, 1.0, 1191, 2, -0.25, 1197, 2, -0.25, 1199, 2, -0.25, 1194, 2, -0.25
*EQUATION
5
1835, 3, 1.0, 1191, 3, -0.25, 1197, 3, -0.25, 1199, 3, -0.25, 1194, 3, -0.25
*EQUATION
3
1838, 1, 1.0, 1194, 1, -0.5, 1199, 1, -0.5
*EQUATION
3
1838, 2, 1.0, 1194, 2, -0.5, 1199, 2, -0.5
*EQUATION
3
1838, 3, 1.0, 1194, 3, -0.5, 1199, 3, -0.5
*EQUATION
3
1841, 1, 1.0, 1197, 1, -0.5, 1199, 1, -0.5
*EQUATION
3
1841, 2, 1.0, 1197, 2, -0.5, 1199, 2, -0.5
*EQUATION
3
1841, 3, 1.0, 1197, 3, -0.5, 1199, 3, -0.5
*EQUATION
5
1844, 1, 1.0, 102, 1, -0.25, 150, 1, -0.25, 159, 1, -0.25, 111, 1, -0.25
*EQUATION
5
1844, 2, 1.0, 102, 2, -0.25, 150, 2, -0.25, 159, 2, -0.25, 111, 2, -0.25
*EQUATION
5
1844, 3, 1.0, 102, 3, -0.25, 150, 3, -0.25, 159, 3, -0.25, 111, 3, -0.25
*EQUATION
3
1846, 1, 1.0, 111, 1, -0.5, 159, 1, -0.5
*EQUATION
3
1846, 2, 1.0, 111, 2, -0.5, 159, 2, -0.5
*EQUATION
3
1846, 3, 1.0, 111, 3, -0.5, 159, 3, -0.5
*EQUATION
3
1848, 1, 1.0, 150, 1, -0.5, 159, 1, -0.5
*EQUATION
3
1848, 2, 1.0, 150, 2, -0.5, 159, 2, -0.5
*EQUATION
3
1848, 3, 1.0, 150, 3, -0.5, 159, 3, -0.5
*EQUATION
3
1852, 1, 1.0, 1185, 1, -0.5, 1201, 1, -0.5
*EQUATION
3
1852, 2, 1.0, 1185, 2, -0.5, 1201, 2, -0.5
*EQUATION
3
1852, 3, 1.0, 1185, 3, -0.5, 1201, 3, -0.5
*EQUATION
5
1855, 1, 1.0, 1185, 1, -0.25, 1201, 1, -0.25, 1204, 1, -0.25, 1187, 1, -0.25
*EQUATION
5
1855, 2, 1.0, 1185, 2, -0.25, 1201, 2, -0.25, 1204, 2, -0.25, 1187, 2, -0.25
*EQUATION
5
1855, 3, 1.0, 1185, 3, -0.25, 1201, 3, -0.25, 1204, 3, -0.25, 1187, 3, -0.25
*EQUATION
3
1858, 1, 1.0, 1187, 1, -0.5, 1204, 1, -0.5
*EQUATION
3
1858, 2, 1.0, 1187, 2, -0.5, 1204, 2, -0.5
*EQUATION
3
1858, 3, 1.0, 1187, 3, -0.5, 1204, 3, -0.5
*EQUATION
3
1862, 1, 1.0, 1201, 1, -0.5, 1204, 1, -0.5
*EQUATION
3
1862, 2, 1.0, 1201, 2, -0.5, 1204, 2, -0.5
*EQUATION
3
1862, 3, 1.0, 1201, 3, -0.5, 1204, 3, -0.5
*EQUATION
5
1866, 1, 1.0, 1187, 1, -0.25, 1204, 1, -0.25, 1207, 1, -0.25, 1189, 1, -0.25
*EQUATION
5
1866, 2, 1.0, 1187, 2, -0.25, 1204, 2, -0.25, 1207, 2, -0.25, 1189, 2, -0.25
*EQUATION
5
1866, 3, 1.0, 1187, 3, -0.25, 1204, 3, -0.25, 1207, 3, -0.25, 1189, 3, -0.25
*EQUATION
3
1869, 1, 1.0, 1189, 1, -0.5, 1207, 1, -0.5
*EQUATION
3
1869, 2, 1.0, 1189, 2, -0.5, 1207, 2, -0.5
*EQUATION
3
1869, 3, 1.0, 1189, 3, -0.5, 1207, 3, -0.5
*EQUATION
3
1872, 1, 1.0, 1204, 1, -0.5, 1207, 1, -0.5
*EQUATION
3
1872, 2, 1.0, 1204, 2, -0.5, 1207, 2, -0.5
*EQUATION
3
1872, 3, 1.0, 1204, 3, -0.5, 1207, 3, -0.5
*EQUATION
3
1876, 1, 1.0, 1201, 1, -0.5, 1209, 1, -0.5
*EQUATION
3
1876, 2, 1.0, 1201, 2, -0.5, 1209, 2, -0.5
*EQUATION
3
1876, 3, 1.0, 1201, 3, -0.5, 1209, 3, -0.5
*EQUATION
5
1879, 1, 1.0, 1201, 1, -0.25, 1209, 1, -0.25, 1211, 1, -0.25, 1204, 1, -0.25
*EQUATION
5
1879, 2, 1.0, 1201, 2, -0.25, 1209, 2, -0.25, 1211, 2, -0.25, 1204, 2, -0.25
*EQUATION
5
1879, 3, 1.0, 1201, 3, -0.25, 1209, 3, -0.25, 1211, 3, -0.25, 1204, 3, -0.25
*EQUATION
3
1882, 1, 1.0, 1204, 1, -0.5, 1211, 1, -0.5
*EQUATION
3
1882, 2, 1.0, 1204, 2, -0.5, 1211, 2, -0.5
*EQUATION
3
1882, 3, 1.0, 1204, 3, -0.5, 1211, 3, -0.5
*EQUATION
3
1883, 1, 1.0, 193, 1, -0.5, 1209, 1, -0.5
*EQUATION
3
1883, 2, 1.0, 193, 2, -0.5, 1209, 2, -0.5
*EQUATION
3
1883, 3, 1.0, 193, 3, -0.5, 1209, 3, -0.5
*EQUATION
3
1884, 1, 1.0, 193, 1, -0.5, 1210, 1, -0.5
*EQUATION
3
1884, 2, 1.0, 193, 2, -0.5, 1210, 2, -0.5
*EQUATION
3
1884, 3, 1.0, 193, 3, -0.5, 1210, 3, -0.5
*EQUATION
5
1885, 1, 1.0, 193, 1, -0.25, 1210, 1, -0.25, 1211, 1, -0.25, 1209, 1, -0.25
*EQUATION
5
1885, 2, 1.0, 193, 2, -0.25, 1210, 2, -0.25, 1211, 2, -0.25, 1209, 2, -0.25
*EQUATION
5
1885, 3, 1.0, 193, 3, -0.25, 1210, 3, -0.25, 1211, 3, -0.25, 1209, 3, -0.25
*EQUATION
3
1886, 1, 1.0, 1209, 1, -0.5, 1211, 1, -0.5
*EQUATION
3
1886, 2, 1.0, 1209, 2, -0.5, 1211, 2, -0.5
*EQUATION
3
1886, 3, 1.0, 1209, 3, -0.5, 1211, 3, -0.5
*EQUATION
3
1887, 1, 1.0, 1210, 1, -0.5, 1211, 1, -0.5
*EQUATION
3
1887, 2, 1.0, 1210, 2, -0.5, 1211, 2, -0.5
*EQUATION
3
1887, 3, 1.0, 1210, 3, -0.5, 1211, 3, -0.5
*EQUATION
5
1890, 1, 1.0, 1204, 1, -0.25, 1211, 1, -0.25, 1213, 1, -0.25, 1207, 1, -0.25
*EQUATION
5
1890, 2, 1.0, 1204, 2, -0.25, 1211, 2, -0.25, 1213, 2, -0.25, 1207, 2, -0.25
*EQUATION
5
1890, 3, 1.0, 1204, 3, -0.25, 1211, 3, -0.25, 1213, 3, -0.25, 1207, 3, -0.25
*EQUATION
3
1893, 1, 1.0, 1207, 1, -0.5, 1213, 1, -0.5
*EQUATION
3
1893, 2, 1.0, 1207, 2, -0.5, 1213, 2, -0.5
*EQUATION
3
1893, 3, 1.0, 1207, 3, -0.5, 1213, 3, -0.5
*EQUATION
3
1894, 1, 1.0, 194, 1, -0.5, 1210, 1, -0.5
*EQUATION
3
1894, 2, 1.0, 194, 2, -0.5, 1210, 2, -0.5
*EQUATION
3
1894, 3, 1.0, 194, 3, -0.5, 1210, 3, -0.5
*EQUATION
5
1895, 1, 1.0, 1210, 1, -0.25, 194, 1, -0.25, 1213, 1, -0.25, 1211, 1, -0.25
*EQUATION
5
1895, 2, 1.0, 1210, 2, -0.25, 194, 2, -0.25, 1213, 2, -0.25, 1211, 2, -0.25
*EQUATION
5
1895, 3, 1.0, 1210, 3, -0.25, 194, 3, -0.25, 1213, 3, -0.25, 1211, 3, -0.25
*EQUATION
3
1896, 1, 1.0, 1211, 1, -0.5, 1213, 1, -0.5
*EQUATION
3
1896, 2, 1.0, 1211, 2, -0.5, 1213, 2, -0.5
*EQUATION
3
1896, 3, 1.0, 1211, 3, -0.5, 1213, 3, -0.5
*EQUATION
3
1897, 1, 1.0, 194, 1, -0.5, 1213, 1, -0.5
*EQUATION
3
1897, 2, 1.0, 194, 2, -0.5, 1213, 2, -0.5
*EQUATION
3
1897, 3, 1.0, 194, 3, -0.5, 1213, 3, -0.5
*EQUATION
3
1899, 1, 1.0, 149, 1, -0.5, 197, 1, -0.5
*EQUATION
3
1899, 2, 1.0, 149, 2, -0.5, 197, 2, -0.5
*EQUATION
3
1899, 3, 1.0, 149, 3, -0.5, 197, 3, -0.5
*EQUATION
5
1901, 1, 1.0, 149, 1, -0.25, 197, 1, -0.25, 198, 1, -0.25, 150, 1, -0.25
*EQUATION
5
1901, 2, 1.0, 149, 2, -0.25, 197, 2, -0.25, 198, 2, -0.25, 150, 2, -0.25
*EQUATION
5
1901, 3, 1.0, 149, 3, -0.25, 197, 3, -0.25, 198, 3, -0.25, 150, 3, -0.25
*EQUATION
3
1903, 1, 1.0, 150, 1, -0.5, 198, 1, -0.5
*EQUATION
3
1903, 2, 1.0, 150, 2, -0.5, 198, 2, -0.5
*EQUATION
3
1903, 3, 1.0, 150, 3, -0.5, 198, 3, -0.5
*EQUATION
3
1906, 1, 1.0, 197, 1, -0.5, 198, 1, -0.5
*EQUATION
3
1906, 2, 1.0, 197, 2, -0.5, 198, 2, -0.5
*EQUATION
3
1906, 3, 1.0, 197, 3, -0.5, 198, 3, -0.5
*EQUATION
5
1910, 1, 1.0, 1189, 1, -0.25, 1207, 1, -0.25, 1215, 1, -0.25, 1197, 1, -0.25
*EQUATION
5
1910, 2, 1.0, 1189, 2, -0.25, 1207, 2, -0.25, 1215, 2, -0.25, 1197, 2, -0.25
*EQUATION
5
1910, 3, 1.0, 1189, 3, -0.25, 1207, 3, -0.25, 1215, 3, -0.25, 1197, 3, -0.25
*EQUATION
3
1913, 1, 1.0, 1197, 1, -0.5, 1215, 1, -0.5
*EQUATION
3
1913, 2, 1.0, 1197, 2, -0.5, 1215, 2, -0.5
*EQUATION
3
1913, 3, 1.0, 1197, 3, -0.5, 1215, 3, -0.5
*EQUATION
3
1916, 1, 1.0, 1207, 1, -0.5, 1215, 1, -0.5
*EQUATION
3
1916, 2, 1.0, 1207, 2, -0.5, 1215, 2, -0.5
*EQUATION
3
1916, 3, 1.0, 1207, 3, -0.5, 1215, 3, -0.5
*EQUATION
5
1920, 1, 1.0, 1197, 1, -0.25, 1215, 1, -0.25, 1218, 1, -0.25, 1199, 1, -0.25
*EQUATION
5
1920, 2, 1.0, 1197, 2, -0.25, 1215, 2, -0.25, 1218, 2, -0.25, 1199, 2, -0.25
*EQUATION
5
1920, 3, 1.0, 1197, 3, -0.25, 1215, 3, -0.25, 1218, 3, -0.25, 1199, 3, -0.25
*EQUATION
3
1923, 1, 1.0, 1199, 1, -0.5, 1218, 1, -0.5
*EQUATION
3
1923, 2, 1.0, 1199, 2, -0.5, 1218, 2, -0.5
*EQUATION
3
1923, 3, 1.0, 1199, 3, -0.5, 1218, 3, -0.5
*EQUATION
3
1926, 1, 1.0, 1215, 1, -0.5, 1218, 1, -0.5
*EQUATION
3
1926, 2, 1.0, 1215, 2, -0.5, 1218, 2, -0.5
*EQUATION
3
1926, 3, 1.0, 1215, 3, -0.5, 1218, 3, -0.5
*EQUATION
5
1930, 1, 1.0, 1207, 1, -0.25, 1213, 1, -0.25, 1221, 1, -0.25, 1215, 1, -0.25
*EQUATION
5
1930, 2, 1.0, 1207, 2, -0.25, 1213, 2, -0.25, 1221, 2, -0.25, 1215, 2, -0.25
*EQUATION
5
1930, 3, 1.0, 1207, 3, -0.25, 1213, 3, -0.25, 1221, 3, -0.25, 1215, 3, -0.25
*EQUATION
3
1933, 1, 1.0, 1215, 1, -0.5, 1221, 1, -0.5
*EQUATION
3
1933, 2, 1.0, 1215, 2, -0.5, 1221, 2, -0.5
*EQUATION
3
1933, 3, 1.0, 1215, 3, -0.5, 1221, 3, -0.5
*EQUATION
3
1934, 1, 1.0, 194, 1, -0.5, 1220, 1, -0.5
*EQUATION
3
1934, 2, 1.0, 194, 2, -0.5, 1220, 2, -0.5
*EQUATION
3
1934, 3, 1.0, 194, 3, -0.5, 1220, 3, -0.5
*EQUATION
5
1935, 1, 1.0, 194, 1, -0.25, 1220, 1, -0.25, 1221, 1, -0.25, 1213, 1, -0.25
*EQUATION
5
1935, 2, 1.0, 194, 2, -0.25, 1220, 2, -0.25, 1221, 2, -0.25, 1213, 2, -0.25
*EQUATION
5
1935, 3, 1.0, 194, 3, -0.25, 1220, 3, -0.25, 1221, 3, -0.25, 1213, 3, -0.25
*EQUATION
3
1936, 1, 1.0, 1213, 1, -0.5, 1221, 1, -0.5
*EQUATION
3
1936, 2, 1.0, 1213, 2, -0.5, 1221, 2, -0.5
*EQUATION
3
1936, 3, 1.0, 1213, 3, -0.5, 1221, 3, -0.5
*EQUATION
3
1937, 1, 1.0, 1220, 1, -0.5, 1221, 1, -0.5
*EQUATION
3
1937, 2, 1.0, 1220, 2, -0.5, 1221, 2, -0.5
*EQUATION
3
1937, 3, 1.0, 1220, 3, -0.5, 1221, 3, -0.5
*EQUATION
5
1940, 1, 1.0, 1215, 1, -0.25, 1221, 1, -0.25, 1223, 1, -0.25, 1218, 1, -0.25
*EQUATION
5
1940, 2, 1.0, 1215, 2, -0.25, 1221, 2, -0.25, 1223, 2, -0.25, 1218, 2, -0.25
*EQUATION
5
1940, 3, 1.0, 1215, 3, -0.25, 1221, 3, -0.25, 1223, 3, -0.25, 1218, 3, -0.25
*EQUATION
3
1943, 1, 1.0, 1218, 1, -0.5, 1223, 1, -0.5
*EQUATION
3
1943, 2, 1.0, 1218, 2, -0.5, 1223, 2, -0.5
*EQUATION
3
1943, 3, 1.0, 1218, 3, -0.5, 1223, 3, -0.5
*EQUATION
3
1944, 1, 1.0, 205, 1, -0.5, 1220, 1, -0.5
*EQUATION
3
1944, 2, 1.0, 205, 2, -0.5, 1220, 2, -0.5
*EQUATION
3
1944, 3, 1.0, 205, 3, -0.5, 1220, 3, -0.5
*EQUATION
5
1945, 1, 1.0, 1220, 1, -0.25, 205, 1, -0.25, 1223, 1, -0.25, 1221, 1, -0.25
*EQUATION
5
1945, 2, 1.0, 1220, 2, -0.25, 205, 2, -0.25, 1223, 2, -0.25, 1221, 2, -0.25
*EQUATION
5
1945, 3, 1.0, 1220, 3, -0.25, 205, 3, -0.25, 1223, 3, -0.25, 1221, 3, -0.25
*EQUATION
3
1946, 1, 1.0, 1221, 1, -0.5, 1223, 1, -0.5
*EQUATION
3
1946, 2, 1.0, 1221, 2, -0.5, 1223, 2, -0.5
*EQUATION
3
1946, 3, 1.0, 1221, 3, -0.5, 1223, 3, -0.5
*EQUATION
3
1947, 1, 1.0, 205, 1, -0.5, 1223, 1, -0.5
*EQUATION
3
1947, 2, 1.0, 205, 2, -0.5, 1223, 2, -0.5
*EQUATION
3
1947, 3, 1.0, 205, 3, -0.5, 1223, 3, -0.5
*EQUATION
5
1949, 1, 1.0, 150, 1, -0.25, 198, 1, -0.25, 207, 1, -0.25, 159, 1, -0.25
*EQUATION
5
1949, 2, 1.0, 150, 2, -0.25, 198, 2, -0.25, 207, 2, -0.25, 159, 2, -0.25
*EQUATION
5
1949, 3, 1.0, 150, 3, -0.25, 198, 3, -0.25, 207, 3, -0.25, 159, 3, -0.25
*EQUATION
3
1951, 1, 1.0, 159, 1, -0.5, 207, 1, -0.5
*EQUATION
3
1951, 2, 1.0, 159, 2, -0.5, 207, 2, -0.5
*EQUATION
3
1951, 3, 1.0, 159, 3, -0.5, 207, 3, -0.5
*EQUATION
3
1953, 1, 1.0, 198, 1, -0.5, 207, 1, -0.5
*EQUATION
3
1953, 2, 1.0, 198, 2, -0.5, 207, 2, -0.5
*EQUATION
3
1953, 3, 1.0, 198, 3, -0.5, 207, 3, -0.5
*EQUATION
3
1956, 1, 1.0, 197, 1, -0.5, 245, 1, -0.5
*EQUATION
3
1956, 2, 1.0, 197, 2, -0.5, 245, 2, -0.5
*EQUATION
3
1956, 3, 1.0, 197, 3, -0.5, 245, 3, -0.5
*EQUATION
5
1958, 1, 1.0, 197, 1, -0.25, 245, 1, -0.25, 246, 1, -0.25, 198, 1, -0.25
*EQUATION
5
1958, 2, 1.0, 197, 2, -0.25, 245, 2, -0.25, 246, 2, -0.25, 198, 2, -0.25
*EQUATION
5
1958, 3, 1.0, 197, 3, -0.25, 245, 3, -0.25, 246, 3, -0.25, 198, 3, -0.25
*EQUATION
3
1960, 1, 1.0, 198, 1, -0.5, 246, 1, -0.5
*EQUATION
3
1960, 2, 1.0, 198, 2, -0.5, 246, 2, -0.5
*EQUATION
3
1960, 3, 1.0, 198, 3, -0.5, 246, 3, -0.5
*EQUATION
3
1963, 1, 1.0, 245, 1, -0.5, 246, 1, -0.5
*EQUATION
3
1963, 2, 1.0, 245, 2, -0.5, 246, 2, -0.5
*EQUATION
3
1963, 3, 1.0, 245, 3, -0.5, 246, 3, -0.5
*EQUATION
5
1966, 1, 1.0, 198, 1, -0.25, 246, 1, -0.25, 255, 1, -0.25, 207, 1, -0.25
*EQUATION
5
1966, 2, 1.0, 198, 2, -0.25, 246, 2, -0.25, 255, 2, -0.25, 207, 2, -0.25
*EQUATION
5
1966, 3, 1.0, 198, 3, -0.25, 246, 3, -0.25, 255, 3, -0.25, 207, 3, -0.25
*EQUATION
3
1968, 1, 1.0, 207, 1, -0.5, 255, 1, -0.5
*EQUATION
3
1968, 2, 1.0, 207, 2, -0.5, 255, 2, -0.5
*EQUATION
3
1968, 3, 1.0, 207, 3, -0.5, 255, 3, -0.5
*EQUATION
3
1970, 1, 1.0, 246, 1, -0.5, 255, 1, -0.5
*EQUATION
3
1970, 2, 1.0, 246, 2, -0.5, 255, 2, -0.5
*EQUATION
3
1970, 3, 1.0, 246, 3, -0.5, 255, 3, -0.5
*EQUATION
3
1973, 1, 1.0, 245, 1, -0.5, 293, 1, -0.5
*EQUATION
3
1973, 2, 1.0, 245, 2, -0.5, 293, 2, -0.5
*EQUATION
3
1973, 3, 1.0, 245, 3, -0.5, 293, 3, -0.5
*EQUATION
5
1975, 1, 1.0, 245, 1, -0.25, 293, 1, -0.25, 294, 1, -0.25, 246, 1, -0.25
*EQUATION
5
1975, 2, 1.0, 245, 2, -0.25, 293, 2, -0.25, 294, 2, -0.25, 246, 2, -0.25
*EQUATION
5
1975, 3, 1.0, 245, 3, -0.25, 293, 3, -0.25, 294, 3, -0.25, 246, 3, -0.25
*EQUATION
3
1977, 1, 1.0, 246, 1, -0.5, 294, 1, -0.5
*EQUATION
3
1977, 2, 1.0, 246, 2, -0.5, 294, 2, -0.5
*EQUATION
3
1977, 3, 1.0, 246, 3, -0.5, 294, 3, -0.5
*EQUATION
3
1980, 1, 1.0, 293, 1, -0.5, 294, 1, -0.5
*EQUATION
3
1980, 2, 1.0, 293, 2, -0.5, 294, 2, -0.5
*EQUATION
3
1980, 3, 1.0, 293, 3, -0.5, 294, 3, -0.5
*EQUATION
5
1983, 1, 1.0, 246, 1, -0.25, 294, 1, -0.25, 303, 1, -0.25, 255, 1, -0.25
*EQUATION
5
1983, 2, 1.0, 246, 2, -0.25, 294, 2, -0.25, 303, 2, -0.25, 255, 2, -0.25
*EQUATION
5
1983, 3, 1.0, 246, 3, -0.25, 294, 3, -0.25, 303, 3, -0.25, 255, 3, -0.25
*EQUATION
3
1985, 1, 1.0, 255, 1, -0.5, 303, 1, -0.5
*EQUATION
3
1985, 2, 1.0, 255, 2, -0.5, 303, 2, -0.5
*EQUATION
3
1985, 3, 1.0, 255, 3, -0.5, 303, 3, -0.5
*EQUATION
3
1987, 1, 1.0, 294, 1, -0.5, 303, 1, -0.5
*EQUATION
3
1987, 2, 1.0, 294, 2, -0.5, 303, 2, -0.5
*EQUATION
3
1987, 3, 1.0, 294, 3, -0.5, 303, 3, -0.5
*EQUATION
3
1990, 1, 1.0, 293, 1, -0.5, 341, 1, -0.5
*EQUATION
3
1990, 2, 1.0, 293, 2, -0.5, 341, 2, -0.5
*EQUATION
3
1990, 3, 1.0, 293, 3, -0.5, 341, 3, -0.5
*EQUATION
5
1992, 1, 1.0, 293, 1, -0.25, 341, 1, -0.25, 342, 1, -0.25, 294, 1, -0.25
*EQUATION
5
1992, 2, 1.0, 293, 2, -0.25, 341, 2, -0.25, 342, 2, -0.25, 294, 2, -0.25
*EQUATION
5
1992, 3, 1.0, 293, 3, -0.25, 341, 3, -0.25, 342, 3, -0.25, 294, 3, -0.25
*EQUATION
3
1994, 1, 1.0, 294, 1, -0.5, 342, 1, -0.5
*EQUATION
3
1994, 2, 1.0, 294, 2, -0.5, 342, 2, -0.5
*EQUATION
3
1994, 3, 1.0, 294, 3, -0.5, 342, 3, -0.5
*EQUATION
3
1995, 1, 1.0, 339, 1, -0.5, 341, 1, -0.5
*EQUATION
3
1995, 2, 1.0, 339, 2, -0.5, 341, 2, -0.5
*EQUATION
3
1995, 3, 1.0, 339, 3, -0.5, 341, 3, -0.5
*EQUATION
5
1996, 1, 1.0, 339, 1, -0.25, 340, 1, -0.25, 342, 1, -0.25, 341, 1, -0.25
*EQUATION
5
1996, 2, 1.0, 339, 2, -0.25, 340, 2, -0.25, 342, 2, -0.25, 341, 2, -0.25
*EQUATION
5
1996, 3, 1.0, 339, 3, -0.25, 340, 3, -0.25, 342, 3, -0.25, 341, 3, -0.25
*EQUATION
3
1997, 1, 1.0, 341, 1, -0.5, 342, 1, -0.5
*EQUATION
3
1997, 2, 1.0, 341, 2, -0.5, 342, 2, -0.5
*EQUATION
3
1997, 3, 1.0, 341, 3, -0.5, 342, 3, -0.5
*EQUATION
3
1998, 1, 1.0, 340, 1, -0.5, 342, 1, -0.5
*EQUATION
3
1998, 2, 1.0, 340, 2, -0.5, 342, 2, -0.5
*EQUATION
3
1998, 3, 1.0, 340, 3, -0.5, 342, 3, -0.5
*EQUATION
5
2000, 1, 1.0, 294, 1, -0.25, 342, 1, -0.25, 351, 1, -0.25, 303, 1, -0.25
*EQUATION
5
2000, 2, 1.0, 294, 2, -0.25, 342, 2, -0.25, 351, 2, -0.25, 303, 2, -0.25
*EQUATION
5
2000, 3, 1.0, 294, 3, -0.25, 342, 3, -0.25, 351, 3, -0.25, 303, 3, -0.25
*EQUATION
3
2002, 1, 1.0, 303, 1, -0.5, 351, 1, -0.5
*EQUATION
3
2002, 2, 1.0, 303, 2, -0.5, 351, 2, -0.5
*EQUATION
3
2002, 3, 1.0, 303, 3, -0.5, 351, 3, -0.5
*EQUATION
5
2003, 1, 1.0, 340, 1, -0.25, 350, 1, -0.25, 351, 1, -0.25, 342, 1, -0.25
*EQUATION
5
2003, 2, 1.0, 340, 2, -0.25, 350, 2, -0.25, 351, 2, -0.25, 342, 2, -0.25
*EQUATION
5
2003, 3, 1.0, 340, 3, -0.25, 350, 3, -0.25, 351, 3, -0.25, 342, 3, -0.25
*EQUATION
3
2004, 1, 1.0, 342, 1, -0.5, 351, 1, -0.5
*EQUATION
3
2004, 2, 1.0, 342, 2, -0.5, 351, 2, -0.5
*EQUATION
3
2004, 3, 1.0, 342, 3, -0.5, 351, 3, -0.5
*EQUATION
3
2005, 1, 1.0, 350, 1, -0.5, 351, 1, -0.5
*EQUATION
3
2005, 2, 1.0, 350, 2, -0.5, 351, 2, -0.5
*EQUATION
3
2005, 3, 1.0, 350, 3, -0.5, 351, 3, -0.5
*EQUATION
3
2008, 1, 1.0, 387, 1, -0.5, 435, 1, -0.5
*EQUATION
3
2008, 2, 1.0, 387, 2, -0.5, 435, 2, -0.5
*EQUATION
3
2008, 3, 1.0, 387, 3, -0.5, 435, 3, -0.5
*EQUATION
5
2011, 1, 1.0, 387, 1, -0.25, 435, 1, -0.25, 436, 1, -0.25, 388, 1, -0.25
*EQUATION
5
2011, 2, 1.0, 387, 2, -0.25, 435, 2, -0.25, 436, 2, -0.25, 388, 2, -0.25
*EQUATION
5
2011, 3, 1.0, 387, 3, -0.25, 435, 3, -0.25, 436, 3, -0.25, 388, 3, -0.25
*EQUATION
3
2014, 1, 1.0, 388, 1, -0.5, 436, 1, -0.5
*EQUATION
3
2014, 2, 1.0, 388, 2, -0.5, 436, 2, -0.5
*EQUATION
3
2014, 3, 1.0, 388, 3, -0.5, 436, 3, -0.5
*EQUATION
3
2015, 1, 1.0, 433, 1, -0.5, 435, 1, -0.5
*EQUATION
3
2015, 2, 1.0, 433, 2, -0.5, 435, 2, -0.5
*EQUATION
3
2015, 3, 1.0, 433, 3, -0.5, 435, 3, -0.5
*EQUATION
3
2016, 1, 1.0, 433, 1, -0.5, 434, 1, -0.5
*EQUATION
3
2016, 2, 1.0, 433, 2, -0.5, 434, 2, -0.5
*EQUATION
3
2016, 3, 1.0, 433, 3, -0.5, 434, 3, -0.5
*EQUATION
5
2017, 1, 1.0, 433, 1, -0.25, 434, 1, -0.25, 436, 1, -0.25, 435, 1, -0.25
*EQUATION
5
2017, 2, 1.0, 433, 2, -0.25, 434, 2, -0.25, 436, 2, -0.25, 435, 2, -0.25
*EQUATION
5
2017, 3, 1.0, 433, 3, -0.25, 434, 3, -0.25, 436, 3, -0.25, 435, 3, -0.25
*EQUATION
3
2018, 1, 1.0, 435, 1, -0.5, 436, 1, -0.5
*EQUATION
3
2018, 2, 1.0, 435, 2, -0.5, 436, 2, -0.5
*EQUATION
3
2018, 3, 1.0, 435, 3, -0.5, 436, 3, -0.5
*EQUATION
3
2019, 1, 1.0, 434, 1, -0.5, 436, 1, -0.5
*EQUATION
3
2019, 2, 1.0, 434, 2, -0.5, 436, 2, -0.5
*EQUATION
3
2019, 3, 1.0, 434, 3, -0.5, 436, 3, -0.5
*EQUATION
5
2022, 1, 1.0, 388, 1, -0.25, 436, 1, -0.25, 446, 1, -0.25, 398, 1, -0.25
*EQUATION
5
2022, 2, 1.0, 388, 2, -0.25, 436, 2, -0.25, 446, 2, -0.25, 398, 2, -0.25
*EQUATION
5
2022, 3, 1.0, 388, 3, -0.25, 436, 3, -0.25, 446, 3, -0.25, 398, 3, -0.25
*EQUATION
3
2025, 1, 1.0, 398, 1, -0.5, 446, 1, -0.5
*EQUATION
3
2025, 2, 1.0, 398, 2, -0.5, 446, 2, -0.5
*EQUATION
3
2025, 3, 1.0, 398, 3, -0.5, 446, 3, -0.5
*EQUATION
3
2026, 1, 1.0, 434, 1, -0.5, 445, 1, -0.5
*EQUATION
3
2026, 2, 1.0, 434, 2, -0.5, 445, 2, -0.5
*EQUATION
3
2026, 3, 1.0, 434, 3, -0.5, 445, 3, -0.5
*EQUATION
5
2027, 1, 1.0, 434, 1, -0.25, 445, 1, -0.25, 446, 1, -0.25, 436, 1, -0.25
*EQUATION
5
2027, 2, 1.0, 434, 2, -0.25, 445, 2, -0.25, 446, 2, -0.25, 436, 2, -0.25
*EQUATION
5
2027, 3, 1.0, 434, 3, -0.25, 445, 3, -0.25, 446, 3, -0.25, 436, 3, -0.25
*EQUATION
3
2028, 1, 1.0, 436, 1, -0.5, 446, 1, -0.5
*EQUATION
3
2028, 2, 1.0, 436, 2, -0.5, 446, 2, -0.5
*EQUATION
3
2028, 3, 1.0, 436, 3, -0.5, 446, 3, -0.5
*EQUATION
3
2029, 1, 1.0, 445, 1, -0.5, 446, 1, -0.5
*EQUATION
3
2029, 2, 1.0, 445, 2, -0.5, 446, 2, -0.5
*EQUATION
3
2029, 3, 1.0, 445, 3, -0.5, 446, 3, -0.5
*BOUNDARY
CLAMP, 1, 3, 0.0
*STEP
*STATIC
*CLOAD
887, 3, -454.545454545
888, 3, -454.545454545
891, 3, -454.545454545
894, 3, -454.545454545
896, 3, -454.545454545
898, 3, -454.545454545
900, 3, -454.545454545
903, 3, -454.545454545
906, 3, -454.545454545
909, 3, -454.545454545
912, 3, -454.545454545
*NODE FILE
U
*EL FILE
S, ENER
*NODE PRINT, NSET=TIP_TOP
U
*NODE PRINT, NSET=CLAMP
RF
*EL PRINT, ELSET=EALL
ELSE
*ENERGY PRINT
*END STEP
