*HEADING
T01 D-NLG t01_d-nlg_rev1 conforming C3D8 frozen T
units: mm, N, s, MPa, t. Illustrative steel, not a coupon card.
beam=T01 case=D-NLG job=t01_d-nlg_rev1 type=C3D8
E=210000.0 nu=0.3 fy=235.0 load=-30000.0 N on TIP_TOP
*NODE, NSET=NALL
1, 0, -10, 0
2, 78.2918108394, -10, 4.69750865036
3, 78.2918108394, 0, 4.69750865036
4, 0, 0, 0
5, 0, -10, 40
6, 78.2918108394, -10, 43.7580069203
7, 78.2918108394, 0, 43.7580069203
8, 0, 0, 40
9, 0, -10, 80
10, 78.2918108394, -10, 82.8185051902
11, 78.2918108394, 0, 82.8185051902
12, 0, 0, 80
13, 0, -10, 120
14, 78.2918108394, -10, 121.87900346
15, 78.2918108394, 0, 121.87900346
16, 0, 0, 120
17, 0, -10, 160
18, 78.2918108394, -10, 160.93950173
19, 78.2918108394, 0, 160.93950173
20, 0, 0, 160
** ... 1564 like lines cut
*ELEMENT, TYPE=C3D8, ELSET=EALL
1, 1, 2, 3, 4, 5, 6, 7, 8
2, 5, 6, 7, 8, 9, 10, 11, 12
3, 9, 10, 11, 12, 13, 14, 15, 16
4, 13, 14, 15, 16, 17, 18, 19, 20
5, 17, 18, 19, 20, 21, 22, 23, 24
6, 4, 3, 25, 26, 8, 7, 27, 28
7, 8, 7, 27, 28, 12, 11, 29, 30
8, 12, 11, 29, 30, 16, 15, 31, 32
9, 16, 15, 31, 32, 20, 19, 33, 34
10, 20, 19, 33, 34, 24, 23, 35, 36
11, 37, 38, 39, 40, 41, 42, 43, 44
12, 41, 42, 43, 44, 45, 46, 47, 48
13, 40, 39, 49, 50, 44, 43, 51, 52
14, 44, 43, 51, 52, 48, 47, 53, 54
15, 50, 49, 55, 56, 52, 51, 57, 58
16, 52, 51, 57, 58, 54, 53, 59, 60
17, 56, 55, 22, 21, 58, 57, 61, 62
18, 58, 57, 61, 62, 60, 59, 63, 64
19, 21, 22, 23, 24, 62, 61, 65, 66
20, 62, 61, 65, 66, 64, 63, 67, 68
** ... 940 like lines cut
*NSET, NSET=CLAMP
1, 4, 5, 8, 9, 12, 13, 16, 17, 20, 21, 24, 26, 28, 30, 32
34, 36, 37, 40, 41, 44, 45, 48, 50, 52, 54, 56, 58, 60, 62, 64
66, 68, 70, 72, 74, 76, 78, 80, 82, 84, 86, 88, 90, 92, 94, 96
*NSET, NSET=TIP_TOP
1559, 1560, 1563, 1566, 1568, 1570, 1572, 1575, 1578, 1581, 1584
*NSET, NSET=TIP_FLANGE
1559, 1560, 1563, 1566, 1568, 1570, 1572, 1575, 1578, 1581, 1584
*MATERIAL, NAME=STEEL
*ELASTIC
210000, 0.3
*DENSITY
7.85e-09
*SOLID SECTION, ELSET=EALL, MATERIAL=STEEL
*BOUNDARY
CLAMP, 1, 3, 0.0
*AMPLITUDE, NAME=PULSE
0, 0, 0.004, 1, 0.02, 0, 0.05, 0
*STEP, NLGEOM, INC=80
*DYNAMIC
5.0e-4, 0.050, 1.0e-6, 2.0e-3
*CLOAD, AMPLITUDE=PULSE
1559, 3, -2727.27272727
1560, 3, -2727.27272727
1563, 3, -2727.27272727
1566, 3, -2727.27272727
1568, 3, -2727.27272727
1570, 3, -2727.27272727
1572, 3, -2727.27272727
1575, 3, -2727.27272727
1578, 3, -2727.27272727
1581, 3, -2727.27272727
1584, 3, -2727.27272727
*NODE FILE, FREQUENCY=5
U
*EL FILE, FREQUENCY=5
S, ENER
*NODE PRINT, NSET=TIP_TOP
U
*NODE PRINT, NSET=CLAMP
RF
*EL PRINT, ELSET=EALL
ELSE
*ENERGY PRINT
*END STEP
