*HEADING
R8 tip_flange h-branch ccx vs in-process
local Dirichlet problem; displacements on the cut from the global FE solution
*NODE, NSET=NALL
1, 1777.77777778, 0, 150
2, 1777.77777778, 0, 155
3, 1777.77777778, 0, 160
4, 1777.77777778, 5, 150
5, 1777.77777778, 5, 155
6, 1777.77777778, 5, 160
7, 1777.77777778, 10, 150
8, 1777.77777778, 10, 155
9, 1777.77777778, 10, 160
10, 1833.33333333, 0, 150
11, 1833.33333333, 0, 155
12, 1833.33333333, 0, 160
13, 1833.33333333, 5, 150
14, 1833.33333333, 5, 155
15, 1833.33333333, 5, 160
16, 1833.33333333, 10, 150
17, 1833.33333333, 10, 155
18, 1833.33333333, 10, 160
19, 1888.88888889, 0, 150
20, 1888.88888889, 0, 155
** ... 79 like lines cut
*ELEMENT, TYPE=C3D8, ELSET=EALL
1, 1, 10, 13, 4, 2, 11, 14, 5
2, 2, 11, 14, 5, 3, 12, 15, 6
3, 4, 13, 16, 7, 5, 14, 17, 8
4, 5, 14, 17, 8, 6, 15, 18, 9
5, 10, 19, 22, 13, 11, 20, 23, 14
6, 11, 20, 23, 14, 12, 21, 24, 15
7, 13, 22, 25, 16, 14, 23, 26, 17
8, 14, 23, 26, 17, 15, 24, 27, 18
9, 28, 34, 37, 31, 29, 35, 38, 32
10, 29, 35, 38, 32, 30, 36, 39, 33
11, 31, 37, 40, 19, 32, 38, 41, 20
12, 32, 38, 41, 20, 33, 39, 42, 21
13, 34, 43, 46, 37, 35, 44, 47, 38
14, 35, 44, 47, 38, 36, 45, 48, 39
15, 37, 46, 49, 40, 38, 47, 50, 41
16, 38, 47, 50, 41, 39, 48, 51, 42
17, 52, 58, 60, 54, 53, 59, 61, 55
18, 53, 59, 61, 55, 19, 40, 62, 22
19, 54, 60, 63, 56, 55, 61, 64, 57
20, 55, 61, 64, 57, 22, 62, 65, 25
** ... 20 like lines cut
*NSET, NSET=BDRY
1, 2, 3, 4, 5, 6, 7, 8, 9, 10, 11, 12, 13, 15, 16, 17
18, 19, 20, 21, 22, 24, 25, 26, 27, 28, 29, 30, 31, 32, 33, 34
35, 36, 37, 39, 40, 42, 43, 44, 45, 46, 47, 48, 49, 50, 51, 52
53, 54, 55, 56, 57, 58, 59, 60, 63, 64, 65, 66, 67, 68, 69, 70
71, 72, 73, 75, 77, 78, 79, 80, 81, 82, 83, 84, 85, 86, 87, 88
90, 91, 92, 93, 94, 95, 96, 97, 98, 99
*NSET, NSET=FREE
14, 23, 38, 41, 61, 62, 74, 76, 89
*MATERIAL, NAME=STEEL
*ELASTIC
210000, 0.3
*SOLID SECTION, ELSET=EALL, MATERIAL=STEEL
*BOUNDARY
1, 1, 1, 0.0721903
1, 2, 2, 1.279e-11
1, 3, 3, -2.76993
2, 1, 1, 0.08448145
2, 2, 2, 1.57394e-11
2, 3, 3, -2.76995
3, 1, 1, 0.0967726
3, 2, 2, 1.86888e-11
3, 3, 3, -2.76997
4, 1, 1, 0.0721754
4, 2, 2, -1.0901843605e-05
4, 3, 3, -2.76993
5, 1, 1, 0.0844685
5, 2, 2, -9.3145921303e-06
5, 3, 3, -2.7699475
6, 1, 1, 0.0967616
6, 2, 2, -7.7273406556e-06
6, 3, 3, -2.769965
7, 1, 1, 0.0721605
7, 2, 2, -2.18037e-05
** ... 250 like lines cut
*STEP
*STATIC
*NODE FILE
U
*EL FILE
S, ENER
*EL PRINT, ELSET=EALL
ELSE
*ENERGY PRINT
*END STEP
