*HEADING
G01 S-LIN hanging 8-split residual cycle 1
units: mm, N, s, MPa. Material is illustrative steel, not a coupon card.
E=210000.0 nu=0.3. load -5000.0 N on TIP_TOP.
*NODE, NSET=NALL
1, 0, -10, 0
2, 111.111111111, -10, 0
3, 111.111111111, 0, 0
4, 0, 0, 0
5, 0, -10, 28
6, 111.111111111, -10, 28
7, 111.111111111, 0, 28
8, 0, 0, 28
9, 0, -10, 56
10, 111.111111111, -10, 56
11, 111.111111111, 0, 56
12, 0, 0, 56
13, 0, -10, 84
14, 111.111111111, -10, 84
15, 111.111111111, 0, 84
16, 0, 0, 84
17, 0, -10, 112
18, 111.111111111, -10, 112
19, 111.111111111, 0, 112
20, 0, 0, 112
** ... 1520 like lines cut
*ELEMENT, TYPE=C3D8, ELSET=EALL
1, 1, 918, 921, 914, 913, 919, 922, 915
2, 913, 919, 922, 915, 5, 920, 923, 916
3, 914, 921, 924, 4, 915, 922, 925, 917
4, 915, 922, 925, 917, 916, 923, 926, 8
5, 918, 2, 928, 921, 919, 927, 929, 922
6, 919, 927, 929, 922, 920, 6, 930, 923
7, 921, 928, 3, 924, 922, 929, 931, 925
8, 922, 929, 931, 925, 923, 930, 7, 926
9, 5, 920, 923, 916, 932, 936, 938, 933
10, 932, 936, 938, 933, 9, 937, 939, 934
11, 916, 923, 926, 8, 933, 938, 940, 935
12, 933, 938, 940, 935, 934, 939, 941, 12
13, 920, 6, 930, 923, 936, 942, 943, 938
14, 936, 942, 943, 938, 937, 10, 944, 939
15, 923, 930, 7, 926, 938, 943, 945, 940
16, 938, 943, 945, 940, 939, 944, 11, 941
17, 9, 937, 939, 934, 946, 950, 952, 947
18, 946, 950, 952, 947, 13, 951, 953, 948
19, 934, 939, 941, 12, 947, 952, 954, 949
20, 947, 952, 954, 949, 948, 953, 955, 16
** ... 856 like lines cut
*NSET, NSET=CLAMP
1, 4, 5, 8, 9, 12, 13, 16, 17, 20, 21, 24, 26, 28, 30, 32
34, 36, 37, 40, 41, 44, 45, 48, 50, 52, 54, 56, 58, 60, 62, 64
66, 68, 70, 72, 74, 76, 78, 80, 82, 84, 86, 88, 90, 92, 94, 96
913, 914, 915, 916, 917, 932, 933, 934, 935, 946, 947, 948, 949, 960, 961, 962
963, 974, 975, 976, 977, 988, 989, 990, 991, 1002, 1003, 1004, 1012, 1013, 1014, 1022
1023, 1024, 1032, 1033, 1034, 1042, 1043, 1044, 1045, 1046, 1061, 1062, 1063, 1064, 1075, 1076
1077, 1078, 1089, 1090, 1091, 1092, 1093, 1107, 1108, 1109, 1117, 1118, 1119, 1120, 1130, 1131
1132, 1140, 1141, 1142, 1150, 1151, 1152, 1160, 1161, 1162, 1163, 1174, 1175, 1176, 1177, 1188
1189, 1190, 1191, 1202, 1203, 1204, 1212, 1213, 1214, 1215, 1226, 1227, 1228, 1229, 1230, 1244
1245, 1246
*NSET, NSET=TIP_TOP
887, 888, 891, 894, 896, 898, 900, 903, 906, 909, 912, 1378, 1392, 1406, 1433, 1453
1473, 1497, 1511, 1525, 1539
*MATERIAL, NAME=STEEL
*ELASTIC
210000, 0.3
*SOLID SECTION, ELSET=EALL, MATERIAL=STEEL
*EQUATION
3
944, 1, 1.0, 10, 1, -0.5, 11, 1, -0.5
*EQUATION
3
944, 2, 1.0, 10, 2, -0.5, 11, 2, -0.5
*EQUATION
3
944, 3, 1.0, 10, 3, -0.5, 11, 3, -0.5
*EQUATION
3
956, 1, 1.0, 10, 1, -0.5, 14, 1, -0.5
*EQUATION
3
956, 2, 1.0, 10, 2, -0.5, 14, 2, -0.5
*EQUATION
3
956, 3, 1.0, 10, 3, -0.5, 14, 3, -0.5
*EQUATION
5
957, 1, 1.0, 10, 1, -0.25, 11, 1, -0.25, 15, 1, -0.25, 14, 1, -0.25
*EQUATION
5
957, 2, 1.0, 10, 2, -0.25, 11, 2, -0.25, 15, 2, -0.25, 14, 2, -0.25
*EQUATION
5
957, 3, 1.0, 10, 3, -0.25, 11, 3, -0.25, 15, 3, -0.25, 14, 3, -0.25
*EQUATION
3
958, 1, 1.0, 14, 1, -0.5, 15, 1, -0.5
*EQUATION
3
958, 2, 1.0, 14, 2, -0.5, 15, 2, -0.5
*EQUATION
3
958, 3, 1.0, 14, 3, -0.5, 15, 3, -0.5
*EQUATION
3
959, 1, 1.0, 11, 1, -0.5, 15, 1, -0.5
*EQUATION
3
959, 2, 1.0, 11, 2, -0.5, 15, 2, -0.5
*EQUATION
3
959, 3, 1.0, 11, 3, -0.5, 15, 3, -0.5
*EQUATION
3
970, 1, 1.0, 14, 1, -0.5, 18, 1, -0.5
*EQUATION
3
970, 2, 1.0, 14, 2, -0.5, 18, 2, -0.5
*EQUATION
3
970, 3, 1.0, 14, 3, -0.5, 18, 3, -0.5
*EQUATION
5
971, 1, 1.0, 14, 1, -0.25, 15, 1, -0.25, 19, 1, -0.25, 18, 1, -0.25
*EQUATION
5
971, 2, 1.0, 14, 2, -0.25, 15, 2, -0.25, 19, 2, -0.25, 18, 2, -0.25
*EQUATION
5
971, 3, 1.0, 14, 3, -0.25, 15, 3, -0.25, 19, 3, -0.25, 18, 3, -0.25
*EQUATION
3
972, 1, 1.0, 18, 1, -0.5, 19, 1, -0.5
*EQUATION
3
972, 2, 1.0, 18, 2, -0.5, 19, 2, -0.5
*EQUATION
3
972, 3, 1.0, 18, 3, -0.5, 19, 3, -0.5
*EQUATION
3
973, 1, 1.0, 15, 1, -0.5, 19, 1, -0.5
*EQUATION
3
973, 2, 1.0, 15, 2, -0.5, 19, 2, -0.5
*EQUATION
3
973, 3, 1.0, 15, 3, -0.5, 19, 3, -0.5
*EQUATION
3
984, 1, 1.0, 18, 1, -0.5, 22, 1, -0.5
*EQUATION
3
984, 2, 1.0, 18, 2, -0.5, 22, 2, -0.5
*EQUATION
3
984, 3, 1.0, 18, 3, -0.5, 22, 3, -0.5
*EQUATION
5
985, 1, 1.0, 18, 1, -0.25, 19, 1, -0.25, 23, 1, -0.25, 22, 1, -0.25
*EQUATION
5
985, 2, 1.0, 18, 2, -0.25, 19, 2, -0.25, 23, 2, -0.25, 22, 2, -0.25
*EQUATION
5
985, 3, 1.0, 18, 3, -0.25, 19, 3, -0.25, 23, 3, -0.25, 22, 3, -0.25
*EQUATION
3
986, 1, 1.0, 22, 1, -0.5, 23, 1, -0.5
*EQUATION
3
986, 2, 1.0, 22, 2, -0.5, 23, 2, -0.5
*EQUATION
3
986, 3, 1.0, 22, 3, -0.5, 23, 3, -0.5
*EQUATION
3
987, 1, 1.0, 19, 1, -0.5, 23, 1, -0.5
*EQUATION
3
987, 2, 1.0, 19, 2, -0.5, 23, 2, -0.5
*EQUATION
3
987, 3, 1.0, 19, 3, -0.5, 23, 3, -0.5
*EQUATION
3
1010, 1, 1.0, 11, 1, -0.5, 29, 1, -0.5
*EQUATION
3
1010, 2, 1.0, 11, 2, -0.5, 29, 2, -0.5
*EQUATION
3
1010, 3, 1.0, 11, 3, -0.5, 29, 3, -0.5
*EQUATION
5
1019, 1, 1.0, 11, 1, -0.25, 29, 1, -0.25, 31, 1, -0.25, 15, 1, -0.25
*EQUATION
5
1019, 2, 1.0, 11, 2, -0.25, 29, 2, -0.25, 31, 2, -0.25, 15, 2, -0.25
*EQUATION
5
1019, 3, 1.0, 11, 3, -0.25, 29, 3, -0.25, 31, 3, -0.25, 15, 3, -0.25
*EQUATION
3
1020, 1, 1.0, 15, 1, -0.5, 31, 1, -0.5
*EQUATION
3
1020, 2, 1.0, 15, 2, -0.5, 31, 2, -0.5
*EQUATION
3
1020, 3, 1.0, 15, 3, -0.5, 31, 3, -0.5
*EQUATION
3
1021, 1, 1.0, 29, 1, -0.5, 31, 1, -0.5
*EQUATION
3
1021, 2, 1.0, 29, 2, -0.5, 31, 2, -0.5
*EQUATION
3
1021, 3, 1.0, 29, 3, -0.5, 31, 3, -0.5
*EQUATION
5
1029, 1, 1.0, 15, 1, -0.25, 31, 1, -0.25, 33, 1, -0.25, 19, 1, -0.25
*EQUATION
5
1029, 2, 1.0, 15, 2, -0.25, 31, 2, -0.25, 33, 2, -0.25, 19, 2, -0.25
*EQUATION
5
1029, 3, 1.0, 15, 3, -0.25, 31, 3, -0.25, 33, 3, -0.25, 19, 3, -0.25
*EQUATION
3
1030, 1, 1.0, 19, 1, -0.5, 33, 1, -0.5
*EQUATION
3
1030, 2, 1.0, 19, 2, -0.5, 33, 2, -0.5
*EQUATION
3
1030, 3, 1.0, 19, 3, -0.5, 33, 3, -0.5
*EQUATION
3
1031, 1, 1.0, 31, 1, -0.5, 33, 1, -0.5
*EQUATION
3
1031, 2, 1.0, 31, 2, -0.5, 33, 2, -0.5
*EQUATION
3
1031, 3, 1.0, 31, 3, -0.5, 33, 3, -0.5
*EQUATION
5
1039, 1, 1.0, 19, 1, -0.25, 33, 1, -0.25, 35, 1, -0.25, 23, 1, -0.25
*EQUATION
5
1039, 2, 1.0, 19, 2, -0.25, 33, 2, -0.25, 35, 2, -0.25, 23, 2, -0.25
*EQUATION
5
1039, 3, 1.0, 19, 3, -0.25, 33, 3, -0.25, 35, 3, -0.25, 23, 3, -0.25
*EQUATION
3
1040, 1, 1.0, 23, 1, -0.5, 35, 1, -0.5
*EQUATION
3
1040, 2, 1.0, 23, 2, -0.5, 35, 2, -0.5
*EQUATION
3
1040, 3, 1.0, 23, 3, -0.5, 35, 3, -0.5
*EQUATION
3
1041, 1, 1.0, 33, 1, -0.5, 35, 1, -0.5
*EQUATION
3
1041, 2, 1.0, 33, 2, -0.5, 35, 2, -0.5
*EQUATION
3
1041, 3, 1.0, 33, 3, -0.5, 35, 3, -0.5
*EQUATION
3
1053, 1, 1.0, 39, 1, -0.5, 40, 1, -0.5
*EQUATION
3
1053, 2, 1.0, 39, 2, -0.5, 40, 2, -0.5
*EQUATION
3
1053, 3, 1.0, 39, 3, -0.5, 40, 3, -0.5
*EQUATION
5
1054, 1, 1.0, 40, 1, -0.25, 39, 1, -0.25, 43, 1, -0.25, 44, 1, -0.25
*EQUATION
5
1054, 2, 1.0, 40, 2, -0.25, 39, 2, -0.25, 43, 2, -0.25, 44, 2, -0.25
*EQUATION
5
1054, 3, 1.0, 40, 3, -0.25, 39, 3, -0.25, 43, 3, -0.25, 44, 3, -0.25
*EQUATION
3
1055, 1, 1.0, 43, 1, -0.5, 44, 1, -0.5
*EQUATION
3
1055, 2, 1.0, 43, 2, -0.5, 44, 2, -0.5
*EQUATION
3
1055, 3, 1.0, 43, 3, -0.5, 44, 3, -0.5
*EQUATION
3
1056, 1, 1.0, 38, 1, -0.5, 42, 1, -0.5
*EQUATION
3
1056, 2, 1.0, 38, 2, -0.5, 42, 2, -0.5
*EQUATION
3
1056, 3, 1.0, 38, 3, -0.5, 42, 3, -0.5
*EQUATION
3
1057, 1, 1.0, 38, 1, -0.5, 39, 1, -0.5
*EQUATION
3
1057, 2, 1.0, 38, 2, -0.5, 39, 2, -0.5
*EQUATION
3
1057, 3, 1.0, 38, 3, -0.5, 39, 3, -0.5
*EQUATION
5
1058, 1, 1.0, 38, 1, -0.25, 39, 1, -0.25, 43, 1, -0.25, 42, 1, -0.25
*EQUATION
5
1058, 2, 1.0, 38, 2, -0.25, 39, 2, -0.25, 43, 2, -0.25, 42, 2, -0.25
*EQUATION
5
1058, 3, 1.0, 38, 3, -0.25, 39, 3, -0.25, 43, 3, -0.25, 42, 3, -0.25
*EQUATION
3
1059, 1, 1.0, 42, 1, -0.5, 43, 1, -0.5
*EQUATION
3
1059, 2, 1.0, 42, 2, -0.5, 43, 2, -0.5
*EQUATION
3
1059, 3, 1.0, 42, 3, -0.5, 43, 3, -0.5
*EQUATION
3
1060, 1, 1.0, 39, 1, -0.5, 43, 1, -0.5
*EQUATION
3
1060, 2, 1.0, 39, 2, -0.5, 43, 2, -0.5
*EQUATION
3
1060, 3, 1.0, 39, 3, -0.5, 43, 3, -0.5
*EQUATION
3
1071, 1, 1.0, 42, 1, -0.5, 46, 1, -0.5
*EQUATION
3
1071, 2, 1.0, 42, 2, -0.5, 46, 2, -0.5
*EQUATION
3
1071, 3, 1.0, 42, 3, -0.5, 46, 3, -0.5
*EQUATION
5
1072, 1, 1.0, 42, 1, -0.25, 43, 1, -0.25, 47, 1, -0.25, 46, 1, -0.25
*EQUATION
5
1072, 2, 1.0, 42, 2, -0.25, 43, 2, -0.25, 47, 2, -0.25, 46, 2, -0.25
*EQUATION
5
1072, 3, 1.0, 42, 3, -0.25, 43, 3, -0.25, 47, 3, -0.25, 46, 3, -0.25
*EQUATION
3
1073, 1, 1.0, 46, 1, -0.5, 47, 1, -0.5
*EQUATION
3
1073, 2, 1.0, 46, 2, -0.5, 47, 2, -0.5
*EQUATION
3
1073, 3, 1.0, 46, 3, -0.5, 47, 3, -0.5
*EQUATION
3
1074, 1, 1.0, 43, 1, -0.5, 47, 1, -0.5
*EQUATION
3
1074, 2, 1.0, 43, 2, -0.5, 47, 2, -0.5
*EQUATION
3
1074, 3, 1.0, 43, 3, -0.5, 47, 3, -0.5
*EQUATION
5
1079, 1, 1.0, 44, 1, -0.25, 43, 1, -0.25, 51, 1, -0.25, 52, 1, -0.25
*EQUATION
5
1079, 2, 1.0, 44, 2, -0.25, 43, 2, -0.25, 51, 2, -0.25, 52, 2, -0.25
*EQUATION
5
1079, 3, 1.0, 44, 3, -0.25, 43, 3, -0.25, 51, 3, -0.25, 52, 3, -0.25
*EQUATION
3
1082, 1, 1.0, 51, 1, -0.5, 52, 1, -0.5
*EQUATION
3
1082, 2, 1.0, 51, 2, -0.5, 52, 2, -0.5
*EQUATION
3
1082, 3, 1.0, 51, 3, -0.5, 52, 3, -0.5
*EQUATION
3
1085, 1, 1.0, 43, 1, -0.5, 51, 1, -0.5
*EQUATION
3
1085, 2, 1.0, 43, 2, -0.5, 51, 2, -0.5
*EQUATION
3
1085, 3, 1.0, 43, 3, -0.5, 51, 3, -0.5
*EQUATION
5
1086, 1, 1.0, 43, 1, -0.25, 51, 1, -0.25, 53, 1, -0.25, 47, 1, -0.25
*EQUATION
5
1086, 2, 1.0, 43, 2, -0.25, 51, 2, -0.25, 53, 2, -0.25, 47, 2, -0.25
*EQUATION
5
1086, 3, 1.0, 43, 3, -0.25, 51, 3, -0.25, 53, 3, -0.25, 47, 3, -0.25
*EQUATION
3
1087, 1, 1.0, 47, 1, -0.5, 53, 1, -0.5
*EQUATION
3
1087, 2, 1.0, 47, 2, -0.5, 53, 2, -0.5
*EQUATION
3
1087, 3, 1.0, 47, 3, -0.5, 53, 3, -0.5
*EQUATION
3
1088, 1, 1.0, 51, 1, -0.5, 53, 1, -0.5
*EQUATION
3
1088, 2, 1.0, 51, 2, -0.5, 53, 2, -0.5
*EQUATION
3
1088, 3, 1.0, 51, 3, -0.5, 53, 3, -0.5
*EQUATION
3
1094, 1, 1.0, 49, 1, -0.5, 50, 1, -0.5
*EQUATION
3
1094, 2, 1.0, 49, 2, -0.5, 50, 2, -0.5
*EQUATION
3
1094, 3, 1.0, 49, 3, -0.5, 50, 3, -0.5
*EQUATION
5
1095, 1, 1.0, 50, 1, -0.25, 49, 1, -0.25, 51, 1, -0.25, 52, 1, -0.25
*EQUATION
5
1095, 2, 1.0, 50, 2, -0.25, 49, 2, -0.25, 51, 2, -0.25, 52, 2, -0.25
*EQUATION
5
1095, 3, 1.0, 50, 3, -0.25, 49, 3, -0.25, 51, 3, -0.25, 52, 3, -0.25
*EQUATION
3
1102, 1, 1.0, 49, 1, -0.5, 51, 1, -0.5
*EQUATION
3
1102, 2, 1.0, 49, 2, -0.5, 51, 2, -0.5
*EQUATION
3
1102, 3, 1.0, 49, 3, -0.5, 51, 3, -0.5
*EQUATION
3
1103, 1, 1.0, 49, 1, -0.5, 55, 1, -0.5
*EQUATION
3
1103, 2, 1.0, 49, 2, -0.5, 55, 2, -0.5
*EQUATION
3
1103, 3, 1.0, 49, 3, -0.5, 55, 3, -0.5
*EQUATION
5
1104, 1, 1.0, 49, 1, -0.25, 55, 1, -0.25, 57, 1, -0.25, 51, 1, -0.25
*EQUATION
5
1104, 2, 1.0, 49, 2, -0.25, 55, 2, -0.25, 57, 2, -0.25, 51, 2, -0.25
*EQUATION
5
1104, 3, 1.0, 49, 3, -0.25, 55, 3, -0.25, 57, 3, -0.25, 51, 3, -0.25
*EQUATION
3
1105, 1, 1.0, 51, 1, -0.5, 57, 1, -0.5
*EQUATION
3
1105, 2, 1.0, 51, 2, -0.5, 57, 2, -0.5
*EQUATION
3
1105, 3, 1.0, 51, 3, -0.5, 57, 3, -0.5
*EQUATION
3
1106, 1, 1.0, 55, 1, -0.5, 57, 1, -0.5
*EQUATION
3
1106, 2, 1.0, 55, 2, -0.5, 57, 2, -0.5
*EQUATION
3
1106, 3, 1.0, 55, 3, -0.5, 57, 3, -0.5
*EQUATION
5
1114, 1, 1.0, 51, 1, -0.25, 57, 1, -0.25, 59, 1, -0.25, 53, 1, -0.25
*EQUATION
5
1114, 2, 1.0, 51, 2, -0.25, 57, 2, -0.25, 59, 2, -0.25, 53, 2, -0.25
*EQUATION
5
1114, 3, 1.0, 51, 3, -0.25, 57, 3, -0.25, 59, 3, -0.25, 53, 3, -0.25
*EQUATION
3
1115, 1, 1.0, 53, 1, -0.5, 59, 1, -0.5
*EQUATION
3
1115, 2, 1.0, 53, 2, -0.5, 59, 2, -0.5
*EQUATION
3
1115, 3, 1.0, 53, 3, -0.5, 59, 3, -0.5
*EQUATION
3
1116, 1, 1.0, 57, 1, -0.5, 59, 1, -0.5
*EQUATION
3
1116, 2, 1.0, 57, 2, -0.5, 59, 2, -0.5
*EQUATION
3
1116, 3, 1.0, 57, 3, -0.5, 59, 3, -0.5
*EQUATION
3
1125, 1, 1.0, 61, 1, -0.5, 62, 1, -0.5
*EQUATION
3
1125, 2, 1.0, 61, 2, -0.5, 62, 2, -0.5
*EQUATION
3
1125, 3, 1.0, 61, 3, -0.5, 62, 3, -0.5
*EQUATION
3
1126, 1, 1.0, 22, 1, -0.5, 55, 1, -0.5
*EQUATION
3
1126, 2, 1.0, 22, 2, -0.5, 55, 2, -0.5
*EQUATION
3
1126, 3, 1.0, 22, 3, -0.5, 55, 3, -0.5
*EQUATION
5
1127, 1, 1.0, 55, 1, -0.25, 22, 1, -0.25, 61, 1, -0.25, 57, 1, -0.25
*EQUATION
5
1127, 2, 1.0, 55, 2, -0.25, 22, 2, -0.25, 61, 2, -0.25, 57, 2, -0.25
*EQUATION
5
1127, 3, 1.0, 55, 3, -0.25, 22, 3, -0.25, 61, 3, -0.25, 57, 3, -0.25
*EQUATION
3
1128, 1, 1.0, 57, 1, -0.5, 61, 1, -0.5
*EQUATION
3
1128, 2, 1.0, 57, 2, -0.5, 61, 2, -0.5
*EQUATION
3
1128, 3, 1.0, 57, 3, -0.5, 61, 3, -0.5
*EQUATION
3
1129, 1, 1.0, 22, 1, -0.5, 61, 1, -0.5
*EQUATION
3
1129, 2, 1.0, 22, 2, -0.5, 61, 2, -0.5
*EQUATION
3
1129, 3, 1.0, 22, 3, -0.5, 61, 3, -0.5
*EQUATION
5
1135, 1, 1.0, 62, 1, -0.25, 61, 1, -0.25, 63, 1, -0.25, 64, 1, -0.25
*EQUATION
5
1135, 2, 1.0, 62, 2, -0.25, 61, 2, -0.25, 63, 2, -0.25, 64, 2, -0.25
*EQUATION
5
1135, 3, 1.0, 62, 3, -0.25, 61, 3, -0.25, 63, 3, -0.25, 64, 3, -0.25
*EQUATION
3
1136, 1, 1.0, 63, 1, -0.5, 64, 1, -0.5
*EQUATION
3
1136, 2, 1.0, 63, 2, -0.5, 64, 2, -0.5
*EQUATION
3
1136, 3, 1.0, 63, 3, -0.5, 64, 3, -0.5
*EQUATION
5
1137, 1, 1.0, 57, 1, -0.25, 61, 1, -0.25, 63, 1, -0.25, 59, 1, -0.25
*EQUATION
5
1137, 2, 1.0, 57, 2, -0.25, 61, 2, -0.25, 63, 2, -0.25, 59, 2, -0.25
*EQUATION
5
1137, 3, 1.0, 57, 3, -0.25, 61, 3, -0.25, 63, 3, -0.25, 59, 3, -0.25
*EQUATION
3
1138, 1, 1.0, 59, 1, -0.5, 63, 1, -0.5
*EQUATION
3
1138, 2, 1.0, 59, 2, -0.5, 63, 2, -0.5
*EQUATION
3
1138, 3, 1.0, 59, 3, -0.5, 63, 3, -0.5
*EQUATION
3
1139, 1, 1.0, 61, 1, -0.5, 63, 1, -0.5
*EQUATION
3
1139, 2, 1.0, 61, 2, -0.5, 63, 2, -0.5
*EQUATION
3
1139, 3, 1.0, 61, 3, -0.5, 63, 3, -0.5
*EQUATION
5
1144, 1, 1.0, 62, 1, -0.25, 61, 1, -0.25, 65, 1, -0.25, 66, 1, -0.25
*EQUATION
5
1144, 2, 1.0, 62, 2, -0.25, 61, 2, -0.25, 65, 2, -0.25, 66, 2, -0.25
*EQUATION
5
1144, 3, 1.0, 62, 3, -0.25, 61, 3, -0.25, 65, 3, -0.25, 66, 3, -0.25
*EQUATION
3
1146, 1, 1.0, 65, 1, -0.5, 66, 1, -0.5
*EQUATION
3
1146, 2, 1.0, 65, 2, -0.5, 66, 2, -0.5
*EQUATION
3
1146, 3, 1.0, 65, 3, -0.5, 66, 3, -0.5
*EQUATION
5
1147, 1, 1.0, 22, 1, -0.25, 23, 1, -0.25, 65, 1, -0.25, 61, 1, -0.25
*EQUATION
5
1147, 2, 1.0, 22, 2, -0.25, 23, 2, -0.25, 65, 2, -0.25, 61, 2, -0.25
*EQUATION
5
1147, 3, 1.0, 22, 3, -0.25, 23, 3, -0.25, 65, 3, -0.25, 61, 3, -0.25
*EQUATION
3
1148, 1, 1.0, 61, 1, -0.5, 65, 1, -0.5
*EQUATION
3
1148, 2, 1.0, 61, 2, -0.5, 65, 2, -0.5
*EQUATION
3
1148, 3, 1.0, 61, 3, -0.5, 65, 3, -0.5
*EQUATION
3
1149, 1, 1.0, 23, 1, -0.5, 65, 1, -0.5
*EQUATION
3
1149, 2, 1.0, 23, 2, -0.5, 65, 2, -0.5
*EQUATION
3
1149, 3, 1.0, 23, 3, -0.5, 65, 3, -0.5
*EQUATION
5
1154, 1, 1.0, 66, 1, -0.25, 65, 1, -0.25, 69, 1, -0.25, 70, 1, -0.25
*EQUATION
5
1154, 2, 1.0, 66, 2, -0.25, 65, 2, -0.25, 69, 2, -0.25, 70, 2, -0.25
*EQUATION
5
1154, 3, 1.0, 66, 3, -0.25, 65, 3, -0.25, 69, 3, -0.25, 70, 3, -0.25
*EQUATION
3
1156, 1, 1.0, 69, 1, -0.5, 70, 1, -0.5
*EQUATION
3
1156, 2, 1.0, 69, 2, -0.5, 70, 2, -0.5
*EQUATION
3
1156, 3, 1.0, 69, 3, -0.5, 70, 3, -0.5
*EQUATION
5
1157, 1, 1.0, 23, 1, -0.25, 35, 1, -0.25, 69, 1, -0.25, 65, 1, -0.25
*EQUATION
5
1157, 2, 1.0, 23, 2, -0.25, 35, 2, -0.25, 69, 2, -0.25, 65, 2, -0.25
*EQUATION
5
1157, 3, 1.0, 23, 3, -0.25, 35, 3, -0.25, 69, 3, -0.25, 65, 3, -0.25
*EQUATION
3
1158, 1, 1.0, 65, 1, -0.5, 69, 1, -0.5
*EQUATION
3
1158, 2, 1.0, 65, 2, -0.5, 69, 2, -0.5
*EQUATION
3
1158, 3, 1.0, 65, 3, -0.5, 69, 3, -0.5
*EQUATION
3
1159, 1, 1.0, 35, 1, -0.5, 69, 1, -0.5
*EQUATION
3
1159, 2, 1.0, 35, 2, -0.5, 69, 2, -0.5
*EQUATION
3
1159, 3, 1.0, 35, 3, -0.5, 69, 3, -0.5
*EQUATION
3
1170, 1, 1.0, 35, 1, -0.5, 73, 1, -0.5
*EQUATION
3
1170, 2, 1.0, 35, 2, -0.5, 73, 2, -0.5
*EQUATION
3
1170, 3, 1.0, 35, 3, -0.5, 73, 3, -0.5
*EQUATION
5
1171, 1, 1.0, 35, 1, -0.25, 73, 1, -0.25, 75, 1, -0.25, 69, 1, -0.25
*EQUATION
5
1171, 2, 1.0, 35, 2, -0.25, 73, 2, -0.25, 75, 2, -0.25, 69, 2, -0.25
*EQUATION
5
1171, 3, 1.0, 35, 3, -0.25, 73, 3, -0.25, 75, 3, -0.25, 69, 3, -0.25
*EQUATION
3
1172, 1, 1.0, 69, 1, -0.5, 75, 1, -0.5
*EQUATION
3
1172, 2, 1.0, 69, 2, -0.5, 75, 2, -0.5
*EQUATION
3
1172, 3, 1.0, 69, 3, -0.5, 75, 3, -0.5
*EQUATION
3
1173, 1, 1.0, 73, 1, -0.5, 75, 1, -0.5
*EQUATION
3
1173, 2, 1.0, 73, 2, -0.5, 75, 2, -0.5
*EQUATION
3
1173, 3, 1.0, 73, 3, -0.5, 75, 3, -0.5
*EQUATION
5
1178, 1, 1.0, 70, 1, -0.25, 69, 1, -0.25, 71, 1, -0.25, 72, 1, -0.25
*EQUATION
5
1178, 2, 1.0, 70, 2, -0.25, 69, 2, -0.25, 71, 2, -0.25, 72, 2, -0.25
*EQUATION
5
1178, 3, 1.0, 70, 3, -0.25, 69, 3, -0.25, 71, 3, -0.25, 72, 3, -0.25
*EQUATION
3
1179, 1, 1.0, 71, 1, -0.5, 72, 1, -0.5
*EQUATION
3
1179, 2, 1.0, 71, 2, -0.5, 72, 2, -0.5
*EQUATION
3
1179, 3, 1.0, 71, 3, -0.5, 72, 3, -0.5
*EQUATION
3
1184, 1, 1.0, 69, 1, -0.5, 71, 1, -0.5
*EQUATION
3
1184, 2, 1.0, 69, 2, -0.5, 71, 2, -0.5
*EQUATION
3
1184, 3, 1.0, 69, 3, -0.5, 71, 3, -0.5
*EQUATION
5
1185, 1, 1.0, 69, 1, -0.25, 75, 1, -0.25, 77, 1, -0.25, 71, 1, -0.25
*EQUATION
5
1185, 2, 1.0, 69, 2, -0.25, 75, 2, -0.25, 77, 2, -0.25, 71, 2, -0.25
*EQUATION
5
1185, 3, 1.0, 69, 3, -0.25, 75, 3, -0.25, 77, 3, -0.25, 71, 3, -0.25
*EQUATION
3
1186, 1, 1.0, 71, 1, -0.5, 77, 1, -0.5
*EQUATION
3
1186, 2, 1.0, 71, 2, -0.5, 77, 2, -0.5
*EQUATION
3
1186, 3, 1.0, 71, 3, -0.5, 77, 3, -0.5
*EQUATION
3
1187, 1, 1.0, 75, 1, -0.5, 77, 1, -0.5
*EQUATION
3
1187, 2, 1.0, 75, 2, -0.5, 77, 2, -0.5
*EQUATION
3
1187, 3, 1.0, 75, 3, -0.5, 77, 3, -0.5
*EQUATION
3
1195, 1, 1.0, 79, 1, -0.5, 80, 1, -0.5
*EQUATION
3
1195, 2, 1.0, 79, 2, -0.5, 80, 2, -0.5
*EQUATION
3
1195, 3, 1.0, 79, 3, -0.5, 80, 3, -0.5
*EQUATION
5
1196, 1, 1.0, 80, 1, -0.25, 79, 1, -0.25, 81, 1, -0.25, 82, 1, -0.25
*EQUATION
5
1196, 2, 1.0, 80, 2, -0.25, 79, 2, -0.25, 81, 2, -0.25, 82, 2, -0.25
*EQUATION
5
1196, 3, 1.0, 80, 3, -0.25, 79, 3, -0.25, 81, 3, -0.25, 82, 3, -0.25
*EQUATION
3
1197, 1, 1.0, 81, 1, -0.5, 82, 1, -0.5
*EQUATION
3
1197, 2, 1.0, 81, 2, -0.5, 82, 2, -0.5
*EQUATION
3
1197, 3, 1.0, 81, 3, -0.5, 82, 3, -0.5
*EQUATION
3
1198, 1, 1.0, 73, 1, -0.5, 79, 1, -0.5
*EQUATION
3
1198, 2, 1.0, 73, 2, -0.5, 79, 2, -0.5
*EQUATION
3
1198, 3, 1.0, 73, 3, -0.5, 79, 3, -0.5
*EQUATION
5
1199, 1, 1.0, 73, 1, -0.25, 79, 1, -0.25, 81, 1, -0.25, 75, 1, -0.25
*EQUATION
5
1199, 2, 1.0, 73, 2, -0.25, 79, 2, -0.25, 81, 2, -0.25, 75, 2, -0.25
*EQUATION
5
1199, 3, 1.0, 73, 3, -0.25, 79, 3, -0.25, 81, 3, -0.25, 75, 3, -0.25
*EQUATION
3
1200, 1, 1.0, 75, 1, -0.5, 81, 1, -0.5
*EQUATION
3
1200, 2, 1.0, 75, 2, -0.5, 81, 2, -0.5
*EQUATION
3
1200, 3, 1.0, 75, 3, -0.5, 81, 3, -0.5
*EQUATION
3
1201, 1, 1.0, 79, 1, -0.5, 81, 1, -0.5
*EQUATION
3
1201, 2, 1.0, 79, 2, -0.5, 81, 2, -0.5
*EQUATION
3
1201, 3, 1.0, 79, 3, -0.5, 81, 3, -0.5
*EQUATION
5
1209, 1, 1.0, 75, 1, -0.25, 81, 1, -0.25, 83, 1, -0.25, 77, 1, -0.25
*EQUATION
5
1209, 2, 1.0, 75, 2, -0.25, 81, 2, -0.25, 83, 2, -0.25, 77, 2, -0.25
*EQUATION
5
1209, 3, 1.0, 75, 3, -0.25, 81, 3, -0.25, 83, 3, -0.25, 77, 3, -0.25
*EQUATION
3
1210, 1, 1.0, 77, 1, -0.5, 83, 1, -0.5
*EQUATION
3
1210, 2, 1.0, 77, 2, -0.5, 83, 2, -0.5
*EQUATION
3
1210, 3, 1.0, 77, 3, -0.5, 83, 3, -0.5
*EQUATION
3
1211, 1, 1.0, 81, 1, -0.5, 83, 1, -0.5
*EQUATION
3
1211, 2, 1.0, 81, 2, -0.5, 83, 2, -0.5
*EQUATION
3
1211, 3, 1.0, 81, 3, -0.5, 83, 3, -0.5
*EQUATION
5
1216, 1, 1.0, 82, 1, -0.25, 81, 1, -0.25, 87, 1, -0.25, 88, 1, -0.25
*EQUATION
5
1216, 2, 1.0, 82, 2, -0.25, 81, 2, -0.25, 87, 2, -0.25, 88, 2, -0.25
*EQUATION
5
1216, 3, 1.0, 82, 3, -0.25, 81, 3, -0.25, 87, 3, -0.25, 88, 3, -0.25
*EQUATION
3
1219, 1, 1.0, 87, 1, -0.5, 88, 1, -0.5
*EQUATION
3
1219, 2, 1.0, 87, 2, -0.5, 88, 2, -0.5
*EQUATION
3
1219, 3, 1.0, 87, 3, -0.5, 88, 3, -0.5
*EQUATION
3
1222, 1, 1.0, 81, 1, -0.5, 87, 1, -0.5
*EQUATION
3
1222, 2, 1.0, 81, 2, -0.5, 87, 2, -0.5
*EQUATION
3
1222, 3, 1.0, 81, 3, -0.5, 87, 3, -0.5
*EQUATION
5
1223, 1, 1.0, 81, 1, -0.25, 87, 1, -0.25, 89, 1, -0.25, 83, 1, -0.25
*EQUATION
5
1223, 2, 1.0, 81, 2, -0.25, 87, 2, -0.25, 89, 2, -0.25, 83, 2, -0.25
*EQUATION
5
1223, 3, 1.0, 81, 3, -0.25, 87, 3, -0.25, 89, 3, -0.25, 83, 3, -0.25
*EQUATION
3
1224, 1, 1.0, 83, 1, -0.5, 89, 1, -0.5
*EQUATION
3
1224, 2, 1.0, 83, 2, -0.5, 89, 2, -0.5
*EQUATION
3
1224, 3, 1.0, 83, 3, -0.5, 89, 3, -0.5
*EQUATION
3
1225, 1, 1.0, 87, 1, -0.5, 89, 1, -0.5
*EQUATION
3
1225, 2, 1.0, 87, 2, -0.5, 89, 2, -0.5
*EQUATION
3
1225, 3, 1.0, 87, 3, -0.5, 89, 3, -0.5
*EQUATION
3
1231, 1, 1.0, 85, 1, -0.5, 86, 1, -0.5
*EQUATION
3
1231, 2, 1.0, 85, 2, -0.5, 86, 2, -0.5
*EQUATION
3
1231, 3, 1.0, 85, 3, -0.5, 86, 3, -0.5
*EQUATION
5
1232, 1, 1.0, 86, 1, -0.25, 85, 1, -0.25, 87, 1, -0.25, 88, 1, -0.25
*EQUATION
5
1232, 2, 1.0, 86, 2, -0.25, 85, 2, -0.25, 87, 2, -0.25, 88, 2, -0.25
*EQUATION
5
1232, 3, 1.0, 86, 3, -0.25, 85, 3, -0.25, 87, 3, -0.25, 88, 3, -0.25
*EQUATION
3
1239, 1, 1.0, 85, 1, -0.5, 87, 1, -0.5
*EQUATION
3
1239, 2, 1.0, 85, 2, -0.5, 87, 2, -0.5
*EQUATION
3
1239, 3, 1.0, 85, 3, -0.5, 87, 3, -0.5
*EQUATION
3
1240, 1, 1.0, 85, 1, -0.5, 91, 1, -0.5
*EQUATION
3
1240, 2, 1.0, 85, 2, -0.5, 91, 2, -0.5
*EQUATION
3
1240, 3, 1.0, 85, 3, -0.5, 91, 3, -0.5
*EQUATION
5
1241, 1, 1.0, 85, 1, -0.25, 91, 1, -0.25, 93, 1, -0.25, 87, 1, -0.25
*EQUATION
5
1241, 2, 1.0, 85, 2, -0.25, 91, 2, -0.25, 93, 2, -0.25, 87, 2, -0.25
*EQUATION
5
1241, 3, 1.0, 85, 3, -0.25, 91, 3, -0.25, 93, 3, -0.25, 87, 3, -0.25
*EQUATION
3
1242, 1, 1.0, 87, 1, -0.5, 93, 1, -0.5
*EQUATION
3
1242, 2, 1.0, 87, 2, -0.5, 93, 2, -0.5
*EQUATION
3
1242, 3, 1.0, 87, 3, -0.5, 93, 3, -0.5
*EQUATION
3
1243, 1, 1.0, 91, 1, -0.5, 93, 1, -0.5
*EQUATION
3
1243, 2, 1.0, 91, 2, -0.5, 93, 2, -0.5
*EQUATION
3
1243, 3, 1.0, 91, 3, -0.5, 93, 3, -0.5
*EQUATION
5
1251, 1, 1.0, 87, 1, -0.25, 93, 1, -0.25, 95, 1, -0.25, 89, 1, -0.25
*EQUATION
5
1251, 2, 1.0, 87, 2, -0.25, 93, 2, -0.25, 95, 2, -0.25, 89, 2, -0.25
*EQUATION
5
1251, 3, 1.0, 87, 3, -0.25, 93, 3, -0.25, 95, 3, -0.25, 89, 3, -0.25
*EQUATION
3
1252, 1, 1.0, 89, 1, -0.5, 95, 1, -0.5
*EQUATION
3
1252, 2, 1.0, 89, 2, -0.5, 95, 2, -0.5
*EQUATION
3
1252, 3, 1.0, 89, 3, -0.5, 95, 3, -0.5
*EQUATION
3
1253, 1, 1.0, 93, 1, -0.5, 95, 1, -0.5
*EQUATION
3
1253, 2, 1.0, 93, 2, -0.5, 95, 2, -0.5
*EQUATION
3
1253, 3, 1.0, 93, 3, -0.5, 95, 3, -0.5
*EQUATION
3
1263, 1, 1.0, 97, 1, -0.5, 99, 1, -0.5
*EQUATION
3
1263, 2, 1.0, 97, 2, -0.5, 99, 2, -0.5
*EQUATION
3
1263, 3, 1.0, 97, 3, -0.5, 99, 3, -0.5
*EQUATION
3
1264, 1, 1.0, 97, 1, -0.5, 98, 1, -0.5
*EQUATION
3
1264, 2, 1.0, 97, 2, -0.5, 98, 2, -0.5
*EQUATION
3
1264, 3, 1.0, 97, 3, -0.5, 98, 3, -0.5
*EQUATION
5
1265, 1, 1.0, 97, 1, -0.25, 98, 1, -0.25, 100, 1, -0.25, 99, 1, -0.25
*EQUATION
5
1265, 2, 1.0, 97, 2, -0.25, 98, 2, -0.25, 100, 2, -0.25, 99, 2, -0.25
*EQUATION
5
1265, 3, 1.0, 97, 3, -0.25, 98, 3, -0.25, 100, 3, -0.25, 99, 3, -0.25
*EQUATION
3
1266, 1, 1.0, 99, 1, -0.5, 100, 1, -0.5
*EQUATION
3
1266, 2, 1.0, 99, 2, -0.5, 100, 2, -0.5
*EQUATION
3
1266, 3, 1.0, 99, 3, -0.5, 100, 3, -0.5
*EQUATION
3
1267, 1, 1.0, 98, 1, -0.5, 100, 1, -0.5
*EQUATION
3
1267, 2, 1.0, 98, 2, -0.5, 100, 2, -0.5
*EQUATION
3
1267, 3, 1.0, 98, 3, -0.5, 100, 3, -0.5
*EQUATION
3
1269, 1, 1.0, 10, 1, -0.5, 101, 1, -0.5
*EQUATION
3
1269, 2, 1.0, 10, 2, -0.5, 101, 2, -0.5
*EQUATION
3
1269, 3, 1.0, 10, 3, -0.5, 101, 3, -0.5
*EQUATION
5
1271, 1, 1.0, 10, 1, -0.25, 101, 1, -0.25, 102, 1, -0.25, 11, 1, -0.25
*EQUATION
5
1271, 2, 1.0, 10, 2, -0.25, 101, 2, -0.25, 102, 2, -0.25, 11, 2, -0.25
*EQUATION
5
1271, 3, 1.0, 10, 3, -0.25, 101, 3, -0.25, 102, 3, -0.25, 11, 3, -0.25
*EQUATION
3
1273, 1, 1.0, 11, 1, -0.5, 102, 1, -0.5
*EQUATION
3
1273, 2, 1.0, 11, 2, -0.5, 102, 2, -0.5
*EQUATION
3
1273, 3, 1.0, 11, 3, -0.5, 102, 3, -0.5
*EQUATION
3
1274, 1, 1.0, 99, 1, -0.5, 101, 1, -0.5
*EQUATION
3
1274, 2, 1.0, 99, 2, -0.5, 101, 2, -0.5
*EQUATION
3
1274, 3, 1.0, 99, 3, -0.5, 101, 3, -0.5
*EQUATION
5
1275, 1, 1.0, 99, 1, -0.25, 100, 1, -0.25, 102, 1, -0.25, 101, 1, -0.25
*EQUATION
5
1275, 2, 1.0, 99, 2, -0.25, 100, 2, -0.25, 102, 2, -0.25, 101, 2, -0.25
*EQUATION
5
1275, 3, 1.0, 99, 3, -0.25, 100, 3, -0.25, 102, 3, -0.25, 101, 3, -0.25
*EQUATION
3
1276, 1, 1.0, 101, 1, -0.5, 102, 1, -0.5
*EQUATION
3
1276, 2, 1.0, 101, 2, -0.5, 102, 2, -0.5
*EQUATION
3
1276, 3, 1.0, 101, 3, -0.5, 102, 3, -0.5
*EQUATION
3
1277, 1, 1.0, 100, 1, -0.5, 102, 1, -0.5
*EQUATION
3
1277, 2, 1.0, 100, 2, -0.5, 102, 2, -0.5
*EQUATION
3
1277, 3, 1.0, 100, 3, -0.5, 102, 3, -0.5
*EQUATION
3
1284, 1, 1.0, 98, 1, -0.5, 109, 1, -0.5
*EQUATION
3
1284, 2, 1.0, 98, 2, -0.5, 109, 2, -0.5
*EQUATION
3
1284, 3, 1.0, 98, 3, -0.5, 109, 3, -0.5
*EQUATION
5
1285, 1, 1.0, 98, 1, -0.25, 109, 1, -0.25, 110, 1, -0.25, 100, 1, -0.25
*EQUATION
5
1285, 2, 1.0, 98, 2, -0.25, 109, 2, -0.25, 110, 2, -0.25, 100, 2, -0.25
*EQUATION
5
1285, 3, 1.0, 98, 3, -0.25, 109, 3, -0.25, 110, 3, -0.25, 100, 3, -0.25
*EQUATION
3
1286, 1, 1.0, 100, 1, -0.5, 110, 1, -0.5
*EQUATION
3
1286, 2, 1.0, 100, 2, -0.5, 110, 2, -0.5
*EQUATION
3
1286, 3, 1.0, 100, 3, -0.5, 110, 3, -0.5
*EQUATION
3
1287, 1, 1.0, 109, 1, -0.5, 110, 1, -0.5
*EQUATION
3
1287, 2, 1.0, 109, 2, -0.5, 110, 2, -0.5
*EQUATION
3
1287, 3, 1.0, 109, 3, -0.5, 110, 3, -0.5
*EQUATION
5
1289, 1, 1.0, 11, 1, -0.25, 102, 1, -0.25, 111, 1, -0.25, 29, 1, -0.25
*EQUATION
5
1289, 2, 1.0, 11, 2, -0.25, 102, 2, -0.25, 111, 2, -0.25, 29, 2, -0.25
*EQUATION
5
1289, 3, 1.0, 11, 3, -0.25, 102, 3, -0.25, 111, 3, -0.25, 29, 3, -0.25
*EQUATION
3
1291, 1, 1.0, 29, 1, -0.5, 111, 1, -0.5
*EQUATION
3
1291, 2, 1.0, 29, 2, -0.5, 111, 2, -0.5
*EQUATION
3
1291, 3, 1.0, 29, 3, -0.5, 111, 3, -0.5
*EQUATION
5
1292, 1, 1.0, 100, 1, -0.25, 110, 1, -0.25, 111, 1, -0.25, 102, 1, -0.25
*EQUATION
5
1292, 2, 1.0, 100, 2, -0.25, 110, 2, -0.25, 111, 2, -0.25, 102, 2, -0.25
*EQUATION
5
1292, 3, 1.0, 100, 3, -0.25, 110, 3, -0.25, 111, 3, -0.25, 102, 3, -0.25
*EQUATION
3
1293, 1, 1.0, 102, 1, -0.5, 111, 1, -0.5
*EQUATION
3
1293, 2, 1.0, 102, 2, -0.5, 111, 2, -0.5
*EQUATION
3
1293, 3, 1.0, 102, 3, -0.5, 111, 3, -0.5
*EQUATION
3
1294, 1, 1.0, 110, 1, -0.5, 111, 1, -0.5
*EQUATION
3
1294, 2, 1.0, 110, 2, -0.5, 111, 2, -0.5
*EQUATION
3
1294, 3, 1.0, 110, 3, -0.5, 111, 3, -0.5
*EQUATION
3
1295, 1, 1.0, 721, 1, -0.5, 723, 1, -0.5
*EQUATION
3
1295, 2, 1.0, 721, 2, -0.5, 723, 2, -0.5
*EQUATION
3
1295, 3, 1.0, 721, 3, -0.5, 723, 3, -0.5
*EQUATION
3
1296, 1, 1.0, 721, 1, -0.5, 722, 1, -0.5
*EQUATION
3
1296, 2, 1.0, 721, 2, -0.5, 722, 2, -0.5
*EQUATION
3
1296, 3, 1.0, 721, 3, -0.5, 722, 3, -0.5
*EQUATION
5
1297, 1, 1.0, 721, 1, -0.25, 722, 1, -0.25, 724, 1, -0.25, 723, 1, -0.25
*EQUATION
5
1297, 2, 1.0, 721, 2, -0.25, 722, 2, -0.25, 724, 2, -0.25, 723, 2, -0.25
*EQUATION
5
1297, 3, 1.0, 721, 3, -0.25, 722, 3, -0.25, 724, 3, -0.25, 723, 3, -0.25
*EQUATION
3
1298, 1, 1.0, 723, 1, -0.5, 724, 1, -0.5
*EQUATION
3
1298, 2, 1.0, 723, 2, -0.5, 724, 2, -0.5
*EQUATION
3
1298, 3, 1.0, 723, 3, -0.5, 724, 3, -0.5
*EQUATION
3
1299, 1, 1.0, 722, 1, -0.5, 724, 1, -0.5
*EQUATION
3
1299, 2, 1.0, 722, 2, -0.5, 724, 2, -0.5
*EQUATION
3
1299, 3, 1.0, 722, 3, -0.5, 724, 3, -0.5
*EQUATION
3
1302, 1, 1.0, 723, 1, -0.5, 771, 1, -0.5
*EQUATION
3
1302, 2, 1.0, 723, 2, -0.5, 771, 2, -0.5
*EQUATION
3
1302, 3, 1.0, 723, 3, -0.5, 771, 3, -0.5
*EQUATION
5
1305, 1, 1.0, 723, 1, -0.25, 771, 1, -0.25, 772, 1, -0.25, 724, 1, -0.25
*EQUATION
5
1305, 2, 1.0, 723, 2, -0.25, 771, 2, -0.25, 772, 2, -0.25, 724, 2, -0.25
*EQUATION
5
1305, 3, 1.0, 723, 3, -0.25, 771, 3, -0.25, 772, 3, -0.25, 724, 3, -0.25
*EQUATION
3
1308, 1, 1.0, 724, 1, -0.5, 772, 1, -0.5
*EQUATION
3
1308, 2, 1.0, 724, 2, -0.5, 772, 2, -0.5
*EQUATION
3
1308, 3, 1.0, 724, 3, -0.5, 772, 3, -0.5
*EQUATION
3
1309, 1, 1.0, 769, 1, -0.5, 771, 1, -0.5
*EQUATION
3
1309, 2, 1.0, 769, 2, -0.5, 771, 2, -0.5
*EQUATION
3
1309, 3, 1.0, 769, 3, -0.5, 771, 3, -0.5
*EQUATION
3
1310, 1, 1.0, 769, 1, -0.5, 770, 1, -0.5
*EQUATION
3
1310, 2, 1.0, 769, 2, -0.5, 770, 2, -0.5
*EQUATION
3
1310, 3, 1.0, 769, 3, -0.5, 770, 3, -0.5
*EQUATION
5
1311, 1, 1.0, 769, 1, -0.25, 770, 1, -0.25, 772, 1, -0.25, 771, 1, -0.25
*EQUATION
5
1311, 2, 1.0, 769, 2, -0.25, 770, 2, -0.25, 772, 2, -0.25, 771, 2, -0.25
*EQUATION
5
1311, 3, 1.0, 769, 3, -0.25, 770, 3, -0.25, 772, 3, -0.25, 771, 3, -0.25
*EQUATION
3
1312, 1, 1.0, 771, 1, -0.5, 772, 1, -0.5
*EQUATION
3
1312, 2, 1.0, 771, 2, -0.5, 772, 2, -0.5
*EQUATION
3
1312, 3, 1.0, 771, 3, -0.5, 772, 3, -0.5
*EQUATION
3
1313, 1, 1.0, 770, 1, -0.5, 772, 1, -0.5
*EQUATION
3
1313, 2, 1.0, 770, 2, -0.5, 772, 2, -0.5
*EQUATION
3
1313, 3, 1.0, 770, 3, -0.5, 772, 3, -0.5
*EQUATION
3
1314, 1, 1.0, 722, 1, -0.5, 733, 1, -0.5
*EQUATION
3
1314, 2, 1.0, 722, 2, -0.5, 733, 2, -0.5
*EQUATION
3
1314, 3, 1.0, 722, 3, -0.5, 733, 3, -0.5
*EQUATION
5
1315, 1, 1.0, 722, 1, -0.25, 733, 1, -0.25, 734, 1, -0.25, 724, 1, -0.25
*EQUATION
5
1315, 2, 1.0, 722, 2, -0.25, 733, 2, -0.25, 734, 2, -0.25, 724, 2, -0.25
*EQUATION
5
1315, 3, 1.0, 722, 3, -0.25, 733, 3, -0.25, 734, 3, -0.25, 724, 3, -0.25
*EQUATION
3
1316, 1, 1.0, 724, 1, -0.5, 734, 1, -0.5
*EQUATION
3
1316, 2, 1.0, 724, 2, -0.5, 734, 2, -0.5
*EQUATION
3
1316, 3, 1.0, 724, 3, -0.5, 734, 3, -0.5
*EQUATION
3
1317, 1, 1.0, 733, 1, -0.5, 734, 1, -0.5
*EQUATION
3
1317, 2, 1.0, 733, 2, -0.5, 734, 2, -0.5
*EQUATION
3
1317, 3, 1.0, 733, 3, -0.5, 734, 3, -0.5
*EQUATION
5
1320, 1, 1.0, 724, 1, -0.25, 772, 1, -0.25, 782, 1, -0.25, 734, 1, -0.25
*EQUATION
5
1320, 2, 1.0, 724, 2, -0.25, 772, 2, -0.25, 782, 2, -0.25, 734, 2, -0.25
*EQUATION
5
1320, 3, 1.0, 724, 3, -0.25, 772, 3, -0.25, 782, 3, -0.25, 734, 3, -0.25
*EQUATION
3
1323, 1, 1.0, 734, 1, -0.5, 782, 1, -0.5
*EQUATION
3
1323, 2, 1.0, 734, 2, -0.5, 782, 2, -0.5
*EQUATION
3
1323, 3, 1.0, 734, 3, -0.5, 782, 3, -0.5
*EQUATION
3
1324, 1, 1.0, 770, 1, -0.5, 781, 1, -0.5
*EQUATION
3
1324, 2, 1.0, 770, 2, -0.5, 781, 2, -0.5
*EQUATION
3
1324, 3, 1.0, 770, 3, -0.5, 781, 3, -0.5
*EQUATION
5
1325, 1, 1.0, 770, 1, -0.25, 781, 1, -0.25, 782, 1, -0.25, 772, 1, -0.25
*EQUATION
5
1325, 2, 1.0, 770, 2, -0.25, 781, 2, -0.25, 782, 2, -0.25, 772, 2, -0.25
*EQUATION
5
1325, 3, 1.0, 770, 3, -0.25, 781, 3, -0.25, 782, 3, -0.25, 772, 3, -0.25
*EQUATION
3
1326, 1, 1.0, 772, 1, -0.5, 782, 1, -0.5
*EQUATION
3
1326, 2, 1.0, 772, 2, -0.5, 782, 2, -0.5
*EQUATION
3
1326, 3, 1.0, 772, 3, -0.5, 782, 3, -0.5
*EQUATION
3
1327, 1, 1.0, 781, 1, -0.5, 782, 1, -0.5
*EQUATION
3
1327, 2, 1.0, 781, 2, -0.5, 782, 2, -0.5
*EQUATION
3
1327, 3, 1.0, 781, 3, -0.5, 782, 3, -0.5
*EQUATION
3
1328, 1, 1.0, 825, 1, -0.5, 827, 1, -0.5
*EQUATION
3
1328, 2, 1.0, 825, 2, -0.5, 827, 2, -0.5
*EQUATION
3
1328, 3, 1.0, 825, 3, -0.5, 827, 3, -0.5
*EQUATION
3
1329, 1, 1.0, 825, 1, -0.5, 826, 1, -0.5
*EQUATION
3
1329, 2, 1.0, 825, 2, -0.5, 826, 2, -0.5
*EQUATION
3
1329, 3, 1.0, 825, 3, -0.5, 826, 3, -0.5
*EQUATION
5
1330, 1, 1.0, 825, 1, -0.25, 826, 1, -0.25, 828, 1, -0.25, 827, 1, -0.25
*EQUATION
5
1330, 2, 1.0, 825, 2, -0.25, 826, 2, -0.25, 828, 2, -0.25, 827, 2, -0.25
*EQUATION
5
1330, 3, 1.0, 825, 3, -0.25, 826, 3, -0.25, 828, 3, -0.25, 827, 3, -0.25
*EQUATION
3
1331, 1, 1.0, 827, 1, -0.5, 828, 1, -0.5
*EQUATION
3
1331, 2, 1.0, 827, 2, -0.5, 828, 2, -0.5
*EQUATION
3
1331, 3, 1.0, 827, 3, -0.5, 828, 3, -0.5
*EQUATION
3
1332, 1, 1.0, 826, 1, -0.5, 828, 1, -0.5
*EQUATION
3
1332, 2, 1.0, 826, 2, -0.5, 828, 2, -0.5
*EQUATION
3
1332, 3, 1.0, 826, 3, -0.5, 828, 3, -0.5
*EQUATION
3
1333, 1, 1.0, 825, 1, -0.5, 873, 1, -0.5
*EQUATION
3
1333, 2, 1.0, 825, 2, -0.5, 873, 2, -0.5
*EQUATION
3
1333, 3, 1.0, 825, 3, -0.5, 873, 3, -0.5
*EQUATION
5
1336, 1, 1.0, 825, 1, -0.25, 873, 1, -0.25, 874, 1, -0.25, 826, 1, -0.25
*EQUATION
5
1336, 2, 1.0, 825, 2, -0.25, 873, 2, -0.25, 874, 2, -0.25, 826, 2, -0.25
*EQUATION
5
1336, 3, 1.0, 825, 3, -0.25, 873, 3, -0.25, 874, 3, -0.25, 826, 3, -0.25
*EQUATION
3
1339, 1, 1.0, 826, 1, -0.5, 874, 1, -0.5
*EQUATION
3
1339, 2, 1.0, 826, 2, -0.5, 874, 2, -0.5
*EQUATION
3
1339, 3, 1.0, 826, 3, -0.5, 874, 3, -0.5
*EQUATION
3
1343, 1, 1.0, 873, 1, -0.5, 874, 1, -0.5
*EQUATION
3
1343, 2, 1.0, 873, 2, -0.5, 874, 2, -0.5
*EQUATION
3
1343, 3, 1.0, 873, 3, -0.5, 874, 3, -0.5
*EQUATION
3
1347, 1, 1.0, 826, 1, -0.5, 833, 1, -0.5
*EQUATION
3
1347, 2, 1.0, 826, 2, -0.5, 833, 2, -0.5
*EQUATION
3
1347, 3, 1.0, 826, 3, -0.5, 833, 3, -0.5
*EQUATION
5
1348, 1, 1.0, 826, 1, -0.25, 833, 1, -0.25, 834, 1, -0.25, 828, 1, -0.25
*EQUATION
5
1348, 2, 1.0, 826, 2, -0.25, 833, 2, -0.25, 834, 2, -0.25, 828, 2, -0.25
*EQUATION
5
1348, 3, 1.0, 826, 3, -0.25, 833, 3, -0.25, 834, 3, -0.25, 828, 3, -0.25
*EQUATION
3
1349, 1, 1.0, 828, 1, -0.5, 834, 1, -0.5
*EQUATION
3
1349, 2, 1.0, 828, 2, -0.5, 834, 2, -0.5
*EQUATION
3
1349, 3, 1.0, 828, 3, -0.5, 834, 3, -0.5
*EQUATION
3
1350, 1, 1.0, 833, 1, -0.5, 834, 1, -0.5
*EQUATION
3
1350, 2, 1.0, 833, 2, -0.5, 834, 2, -0.5
*EQUATION
3
1350, 3, 1.0, 833, 3, -0.5, 834, 3, -0.5
*EQUATION
5
1351, 1, 1.0, 826, 1, -0.25, 874, 1, -0.25, 881, 1, -0.25, 833, 1, -0.25
*EQUATION
5
1351, 2, 1.0, 826, 2, -0.25, 874, 2, -0.25, 881, 2, -0.25, 833, 2, -0.25
*EQUATION
5
1351, 3, 1.0, 826, 3, -0.25, 874, 3, -0.25, 881, 3, -0.25, 833, 3, -0.25
*EQUATION
3
1354, 1, 1.0, 833, 1, -0.5, 881, 1, -0.5
*EQUATION
3
1354, 2, 1.0, 833, 2, -0.5, 881, 2, -0.5
*EQUATION
3
1354, 3, 1.0, 833, 3, -0.5, 881, 3, -0.5
*EQUATION
3
1357, 1, 1.0, 874, 1, -0.5, 881, 1, -0.5
*EQUATION
3
1357, 2, 1.0, 874, 2, -0.5, 881, 2, -0.5
*EQUATION
3
1357, 3, 1.0, 874, 3, -0.5, 881, 3, -0.5
*EQUATION
3
1361, 1, 1.0, 837, 1, -0.5, 839, 1, -0.5
*EQUATION
3
1361, 2, 1.0, 837, 2, -0.5, 839, 2, -0.5
*EQUATION
3
1361, 3, 1.0, 837, 3, -0.5, 839, 3, -0.5
*EQUATION
3
1362, 1, 1.0, 837, 1, -0.5, 838, 1, -0.5
*EQUATION
3
1362, 2, 1.0, 837, 2, -0.5, 838, 2, -0.5
*EQUATION
3
1362, 3, 1.0, 837, 3, -0.5, 838, 3, -0.5
*EQUATION
5
1363, 1, 1.0, 837, 1, -0.25, 838, 1, -0.25, 840, 1, -0.25, 839, 1, -0.25
*EQUATION
5
1363, 2, 1.0, 837, 2, -0.25, 838, 2, -0.25, 840, 2, -0.25, 839, 2, -0.25
*EQUATION
5
1363, 3, 1.0, 837, 3, -0.25, 838, 3, -0.25, 840, 3, -0.25, 839, 3, -0.25
*EQUATION
3
1364, 1, 1.0, 839, 1, -0.5, 840, 1, -0.5
*EQUATION
3
1364, 2, 1.0, 839, 2, -0.5, 840, 2, -0.5
*EQUATION
3
1364, 3, 1.0, 839, 3, -0.5, 840, 3, -0.5
*EQUATION
3
1365, 1, 1.0, 838, 1, -0.5, 840, 1, -0.5
*EQUATION
3
1365, 2, 1.0, 838, 2, -0.5, 840, 2, -0.5
*EQUATION
3
1365, 3, 1.0, 838, 3, -0.5, 840, 3, -0.5
*EQUATION
3
1366, 1, 1.0, 837, 1, -0.5, 885, 1, -0.5
*EQUATION
3
1366, 2, 1.0, 837, 2, -0.5, 885, 2, -0.5
*EQUATION
3
1366, 3, 1.0, 837, 3, -0.5, 885, 3, -0.5
*EQUATION
5
1369, 1, 1.0, 837, 1, -0.25, 885, 1, -0.25, 886, 1, -0.25, 838, 1, -0.25
*EQUATION
5
1369, 2, 1.0, 837, 2, -0.25, 885, 2, -0.25, 886, 2, -0.25, 838, 2, -0.25
*EQUATION
5
1369, 3, 1.0, 837, 3, -0.25, 885, 3, -0.25, 886, 3, -0.25, 838, 3, -0.25
*EQUATION
3
1372, 1, 1.0, 838, 1, -0.5, 886, 1, -0.5
*EQUATION
3
1372, 2, 1.0, 838, 2, -0.5, 886, 2, -0.5
*EQUATION
3
1372, 3, 1.0, 838, 3, -0.5, 886, 3, -0.5
*EQUATION
3
1376, 1, 1.0, 885, 1, -0.5, 886, 1, -0.5
*EQUATION
3
1376, 2, 1.0, 885, 2, -0.5, 886, 2, -0.5
*EQUATION
3
1376, 3, 1.0, 885, 3, -0.5, 886, 3, -0.5
*EQUATION
3
1380, 1, 1.0, 838, 1, -0.5, 842, 1, -0.5
*EQUATION
3
1380, 2, 1.0, 838, 2, -0.5, 842, 2, -0.5
*EQUATION
3
1380, 3, 1.0, 838, 3, -0.5, 842, 3, -0.5
*EQUATION
5
1381, 1, 1.0, 838, 1, -0.25, 842, 1, -0.25, 843, 1, -0.25, 840, 1, -0.25
*EQUATION
5
1381, 2, 1.0, 838, 2, -0.25, 842, 2, -0.25, 843, 2, -0.25, 840, 2, -0.25
*EQUATION
5
1381, 3, 1.0, 838, 3, -0.25, 842, 3, -0.25, 843, 3, -0.25, 840, 3, -0.25
*EQUATION
3
1382, 1, 1.0, 840, 1, -0.5, 843, 1, -0.5
*EQUATION
3
1382, 2, 1.0, 840, 2, -0.5, 843, 2, -0.5
*EQUATION
3
1382, 3, 1.0, 840, 3, -0.5, 843, 3, -0.5
*EQUATION
3
1383, 1, 1.0, 842, 1, -0.5, 843, 1, -0.5
*EQUATION
3
1383, 2, 1.0, 842, 2, -0.5, 843, 2, -0.5
*EQUATION
3
1383, 3, 1.0, 842, 3, -0.5, 843, 3, -0.5
*EQUATION
5
1384, 1, 1.0, 838, 1, -0.25, 886, 1, -0.25, 890, 1, -0.25, 842, 1, -0.25
*EQUATION
5
1384, 2, 1.0, 838, 2, -0.25, 886, 2, -0.25, 890, 2, -0.25, 842, 2, -0.25
*EQUATION
5
1384, 3, 1.0, 838, 3, -0.25, 886, 3, -0.25, 890, 3, -0.25, 842, 3, -0.25
*EQUATION
3
1387, 1, 1.0, 842, 1, -0.5, 890, 1, -0.5
*EQUATION
3
1387, 2, 1.0, 842, 2, -0.5, 890, 2, -0.5
*EQUATION
3
1387, 3, 1.0, 842, 3, -0.5, 890, 3, -0.5
*EQUATION
3
1390, 1, 1.0, 886, 1, -0.5, 890, 1, -0.5
*EQUATION
3
1390, 2, 1.0, 886, 2, -0.5, 890, 2, -0.5
*EQUATION
3
1390, 3, 1.0, 886, 3, -0.5, 890, 3, -0.5
*EQUATION
3
1394, 1, 1.0, 842, 1, -0.5, 845, 1, -0.5
*EQUATION
3
1394, 2, 1.0, 842, 2, -0.5, 845, 2, -0.5
*EQUATION
3
1394, 3, 1.0, 842, 3, -0.5, 845, 3, -0.5
*EQUATION
5
1395, 1, 1.0, 842, 1, -0.25, 845, 1, -0.25, 846, 1, -0.25, 843, 1, -0.25
*EQUATION
5
1395, 2, 1.0, 842, 2, -0.25, 845, 2, -0.25, 846, 2, -0.25, 843, 2, -0.25
*EQUATION
5
1395, 3, 1.0, 842, 3, -0.25, 845, 3, -0.25, 846, 3, -0.25, 843, 3, -0.25
*EQUATION
3
1396, 1, 1.0, 843, 1, -0.5, 846, 1, -0.5
*EQUATION
3
1396, 2, 1.0, 843, 2, -0.5, 846, 2, -0.5
*EQUATION
3
1396, 3, 1.0, 843, 3, -0.5, 846, 3, -0.5
*EQUATION
3
1397, 1, 1.0, 845, 1, -0.5, 846, 1, -0.5
*EQUATION
3
1397, 2, 1.0, 845, 2, -0.5, 846, 2, -0.5
*EQUATION
3
1397, 3, 1.0, 845, 3, -0.5, 846, 3, -0.5
*EQUATION
5
1398, 1, 1.0, 842, 1, -0.25, 890, 1, -0.25, 893, 1, -0.25, 845, 1, -0.25
*EQUATION
5
1398, 2, 1.0, 842, 2, -0.25, 890, 2, -0.25, 893, 2, -0.25, 845, 2, -0.25
*EQUATION
5
1398, 3, 1.0, 842, 3, -0.25, 890, 3, -0.25, 893, 3, -0.25, 845, 3, -0.25
*EQUATION
3
1401, 1, 1.0, 845, 1, -0.5, 893, 1, -0.5
*EQUATION
3
1401, 2, 1.0, 845, 2, -0.5, 893, 2, -0.5
*EQUATION
3
1401, 3, 1.0, 845, 3, -0.5, 893, 3, -0.5
*EQUATION
3
1404, 1, 1.0, 890, 1, -0.5, 893, 1, -0.5
*EQUATION
3
1404, 2, 1.0, 890, 2, -0.5, 893, 2, -0.5
*EQUATION
3
1404, 3, 1.0, 890, 3, -0.5, 893, 3, -0.5
*EQUATION
3
1408, 1, 1.0, 844, 1, -0.5, 845, 1, -0.5
*EQUATION
3
1408, 2, 1.0, 844, 2, -0.5, 845, 2, -0.5
*EQUATION
3
1408, 3, 1.0, 844, 3, -0.5, 845, 3, -0.5
*EQUATION
3
1409, 1, 1.0, 827, 1, -0.5, 844, 1, -0.5
*EQUATION
3
1409, 2, 1.0, 827, 2, -0.5, 844, 2, -0.5
*EQUATION
3
1409, 3, 1.0, 827, 3, -0.5, 844, 3, -0.5
*EQUATION
5
1410, 1, 1.0, 844, 1, -0.25, 827, 1, -0.25, 847, 1, -0.25, 845, 1, -0.25
*EQUATION
5
1410, 2, 1.0, 844, 2, -0.25, 827, 2, -0.25, 847, 2, -0.25, 845, 2, -0.25
*EQUATION
5
1410, 3, 1.0, 844, 3, -0.25, 827, 3, -0.25, 847, 3, -0.25, 845, 3, -0.25
*EQUATION
3
1411, 1, 1.0, 845, 1, -0.5, 847, 1, -0.5
*EQUATION
3
1411, 2, 1.0, 845, 2, -0.5, 847, 2, -0.5
*EQUATION
3
1411, 3, 1.0, 845, 3, -0.5, 847, 3, -0.5
*EQUATION
3
1412, 1, 1.0, 827, 1, -0.5, 847, 1, -0.5
*EQUATION
3
1412, 2, 1.0, 827, 2, -0.5, 847, 2, -0.5
*EQUATION
3
1412, 3, 1.0, 827, 3, -0.5, 847, 3, -0.5
*EQUATION
3
1413, 1, 1.0, 844, 1, -0.5, 892, 1, -0.5
*EQUATION
3
1413, 2, 1.0, 844, 2, -0.5, 892, 2, -0.5
*EQUATION
3
1413, 3, 1.0, 844, 3, -0.5, 892, 3, -0.5
*EQUATION
5
1414, 1, 1.0, 844, 1, -0.25, 892, 1, -0.25, 893, 1, -0.25, 845, 1, -0.25
*EQUATION
5
1414, 2, 1.0, 844, 2, -0.25, 892, 2, -0.25, 893, 2, -0.25, 845, 2, -0.25
*EQUATION
5
1414, 3, 1.0, 844, 3, -0.25, 892, 3, -0.25, 893, 3, -0.25, 845, 3, -0.25
*EQUATION
3
1420, 1, 1.0, 892, 1, -0.5, 893, 1, -0.5
*EQUATION
3
1420, 2, 1.0, 892, 2, -0.5, 893, 2, -0.5
*EQUATION
3
1420, 3, 1.0, 892, 3, -0.5, 893, 3, -0.5
*EQUATION
5
1425, 1, 1.0, 845, 1, -0.25, 847, 1, -0.25, 848, 1, -0.25, 846, 1, -0.25
*EQUATION
5
1425, 2, 1.0, 845, 2, -0.25, 847, 2, -0.25, 848, 2, -0.25, 846, 2, -0.25
*EQUATION
5
1425, 3, 1.0, 845, 3, -0.25, 847, 3, -0.25, 848, 3, -0.25, 846, 3, -0.25
*EQUATION
3
1426, 1, 1.0, 846, 1, -0.5, 848, 1, -0.5
*EQUATION
3
1426, 2, 1.0, 846, 2, -0.5, 848, 2, -0.5
*EQUATION
3
1426, 3, 1.0, 846, 3, -0.5, 848, 3, -0.5
*EQUATION
3
1427, 1, 1.0, 847, 1, -0.5, 848, 1, -0.5
*EQUATION
3
1427, 2, 1.0, 847, 2, -0.5, 848, 2, -0.5
*EQUATION
3
1427, 3, 1.0, 847, 3, -0.5, 848, 3, -0.5
*EQUATION
5
1435, 1, 1.0, 827, 1, -0.25, 828, 1, -0.25, 849, 1, -0.25, 847, 1, -0.25
*EQUATION
5
1435, 2, 1.0, 827, 2, -0.25, 828, 2, -0.25, 849, 2, -0.25, 847, 2, -0.25
*EQUATION
5
1435, 3, 1.0, 827, 3, -0.25, 828, 3, -0.25, 849, 3, -0.25, 847, 3, -0.25
*EQUATION
3
1436, 1, 1.0, 847, 1, -0.5, 849, 1, -0.5
*EQUATION
3
1436, 2, 1.0, 847, 2, -0.5, 849, 2, -0.5
*EQUATION
3
1436, 3, 1.0, 847, 3, -0.5, 849, 3, -0.5
*EQUATION
3
1437, 1, 1.0, 828, 1, -0.5, 849, 1, -0.5
*EQUATION
3
1437, 2, 1.0, 828, 2, -0.5, 849, 2, -0.5
*EQUATION
3
1437, 3, 1.0, 828, 3, -0.5, 849, 3, -0.5
*EQUATION
5
1445, 1, 1.0, 847, 1, -0.25, 849, 1, -0.25, 850, 1, -0.25, 848, 1, -0.25
*EQUATION
5
1445, 2, 1.0, 847, 2, -0.25, 849, 2, -0.25, 850, 2, -0.25, 848, 2, -0.25
*EQUATION
5
1445, 3, 1.0, 847, 3, -0.25, 849, 3, -0.25, 850, 3, -0.25, 848, 3, -0.25
*EQUATION
3
1446, 1, 1.0, 848, 1, -0.5, 850, 1, -0.5
*EQUATION
3
1446, 2, 1.0, 848, 2, -0.5, 850, 2, -0.5
*EQUATION
3
1446, 3, 1.0, 848, 3, -0.5, 850, 3, -0.5
*EQUATION
3
1447, 1, 1.0, 849, 1, -0.5, 850, 1, -0.5
*EQUATION
3
1447, 2, 1.0, 849, 2, -0.5, 850, 2, -0.5
*EQUATION
3
1447, 3, 1.0, 849, 3, -0.5, 850, 3, -0.5
*EQUATION
5
1455, 1, 1.0, 828, 1, -0.25, 834, 1, -0.25, 851, 1, -0.25, 849, 1, -0.25
*EQUATION
5
1455, 2, 1.0, 828, 2, -0.25, 834, 2, -0.25, 851, 2, -0.25, 849, 2, -0.25
*EQUATION
5
1455, 3, 1.0, 828, 3, -0.25, 834, 3, -0.25, 851, 3, -0.25, 849, 3, -0.25
*EQUATION
3
1456, 1, 1.0, 849, 1, -0.5, 851, 1, -0.5
*EQUATION
3
1456, 2, 1.0, 849, 2, -0.5, 851, 2, -0.5
*EQUATION
3
1456, 3, 1.0, 849, 3, -0.5, 851, 3, -0.5
*EQUATION
3
1457, 1, 1.0, 834, 1, -0.5, 851, 1, -0.5
*EQUATION
3
1457, 2, 1.0, 834, 2, -0.5, 851, 2, -0.5
*EQUATION
3
1457, 3, 1.0, 834, 3, -0.5, 851, 3, -0.5
*EQUATION
5
1465, 1, 1.0, 849, 1, -0.25, 851, 1, -0.25, 852, 1, -0.25, 850, 1, -0.25
*EQUATION
5
1465, 2, 1.0, 849, 2, -0.25, 851, 2, -0.25, 852, 2, -0.25, 850, 2, -0.25
*EQUATION
5
1465, 3, 1.0, 849, 3, -0.25, 851, 3, -0.25, 852, 3, -0.25, 850, 3, -0.25
*EQUATION
3
1466, 1, 1.0, 850, 1, -0.5, 852, 1, -0.5
*EQUATION
3
1466, 2, 1.0, 850, 2, -0.5, 852, 2, -0.5
*EQUATION
3
1466, 3, 1.0, 850, 3, -0.5, 852, 3, -0.5
*EQUATION
3
1467, 1, 1.0, 851, 1, -0.5, 852, 1, -0.5
*EQUATION
3
1467, 2, 1.0, 851, 2, -0.5, 852, 2, -0.5
*EQUATION
3
1467, 3, 1.0, 851, 3, -0.5, 852, 3, -0.5
*EQUATION
3
1475, 1, 1.0, 834, 1, -0.5, 853, 1, -0.5
*EQUATION
3
1475, 2, 1.0, 834, 2, -0.5, 853, 2, -0.5
*EQUATION
3
1475, 3, 1.0, 834, 3, -0.5, 853, 3, -0.5
*EQUATION
5
1476, 1, 1.0, 834, 1, -0.25, 853, 1, -0.25, 854, 1, -0.25, 851, 1, -0.25
*EQUATION
5
1476, 2, 1.0, 834, 2, -0.25, 853, 2, -0.25, 854, 2, -0.25, 851, 2, -0.25
*EQUATION
5
1476, 3, 1.0, 834, 3, -0.25, 853, 3, -0.25, 854, 3, -0.25, 851, 3, -0.25
*EQUATION
3
1477, 1, 1.0, 851, 1, -0.5, 854, 1, -0.5
*EQUATION
3
1477, 2, 1.0, 851, 2, -0.5, 854, 2, -0.5
*EQUATION
3
1477, 3, 1.0, 851, 3, -0.5, 854, 3, -0.5
*EQUATION
3
1478, 1, 1.0, 853, 1, -0.5, 854, 1, -0.5
*EQUATION
3
1478, 2, 1.0, 853, 2, -0.5, 854, 2, -0.5
*EQUATION
3
1478, 3, 1.0, 853, 3, -0.5, 854, 3, -0.5
*EQUATION
3
1482, 1, 1.0, 853, 1, -0.5, 901, 1, -0.5
*EQUATION
3
1482, 2, 1.0, 853, 2, -0.5, 901, 2, -0.5
*EQUATION
3
1482, 3, 1.0, 853, 3, -0.5, 901, 3, -0.5
*EQUATION
5
1483, 1, 1.0, 853, 1, -0.25, 901, 1, -0.25, 902, 1, -0.25, 854, 1, -0.25
*EQUATION
5
1483, 2, 1.0, 853, 2, -0.25, 901, 2, -0.25, 902, 2, -0.25, 854, 2, -0.25
*EQUATION
5
1483, 3, 1.0, 853, 3, -0.25, 901, 3, -0.25, 902, 3, -0.25, 854, 3, -0.25
*EQUATION
3
1484, 1, 1.0, 854, 1, -0.5, 902, 1, -0.5
*EQUATION
3
1484, 2, 1.0, 854, 2, -0.5, 902, 2, -0.5
*EQUATION
3
1484, 3, 1.0, 854, 3, -0.5, 902, 3, -0.5
*EQUATION
3
1488, 1, 1.0, 901, 1, -0.5, 902, 1, -0.5
*EQUATION
3
1488, 2, 1.0, 901, 2, -0.5, 902, 2, -0.5
*EQUATION
3
1488, 3, 1.0, 901, 3, -0.5, 902, 3, -0.5
*EQUATION
5
1489, 1, 1.0, 851, 1, -0.25, 854, 1, -0.25, 855, 1, -0.25, 852, 1, -0.25
*EQUATION
5
1489, 2, 1.0, 851, 2, -0.25, 854, 2, -0.25, 855, 2, -0.25, 852, 2, -0.25
*EQUATION
5
1489, 3, 1.0, 851, 3, -0.25, 854, 3, -0.25, 855, 3, -0.25, 852, 3, -0.25
*EQUATION
3
1490, 1, 1.0, 852, 1, -0.5, 855, 1, -0.5
*EQUATION
3
1490, 2, 1.0, 852, 2, -0.5, 855, 2, -0.5
*EQUATION
3
1490, 3, 1.0, 852, 3, -0.5, 855, 3, -0.5
*EQUATION
3
1491, 1, 1.0, 854, 1, -0.5, 855, 1, -0.5
*EQUATION
3
1491, 2, 1.0, 854, 2, -0.5, 855, 2, -0.5
*EQUATION
3
1491, 3, 1.0, 854, 3, -0.5, 855, 3, -0.5
*EQUATION
3
1499, 1, 1.0, 854, 1, -0.5, 857, 1, -0.5
*EQUATION
3
1499, 2, 1.0, 854, 2, -0.5, 857, 2, -0.5
*EQUATION
3
1499, 3, 1.0, 854, 3, -0.5, 857, 3, -0.5
*EQUATION
5
1500, 1, 1.0, 854, 1, -0.25, 857, 1, -0.25, 858, 1, -0.25, 855, 1, -0.25
*EQUATION
5
1500, 2, 1.0, 854, 2, -0.25, 857, 2, -0.25, 858, 2, -0.25, 855, 2, -0.25
*EQUATION
5
1500, 3, 1.0, 854, 3, -0.25, 857, 3, -0.25, 858, 3, -0.25, 855, 3, -0.25
*EQUATION
3
1501, 1, 1.0, 855, 1, -0.5, 858, 1, -0.5
*EQUATION
3
1501, 2, 1.0, 855, 2, -0.5, 858, 2, -0.5
*EQUATION
3
1501, 3, 1.0, 855, 3, -0.5, 858, 3, -0.5
*EQUATION
3
1502, 1, 1.0, 857, 1, -0.5, 858, 1, -0.5
*EQUATION
3
1502, 2, 1.0, 857, 2, -0.5, 858, 2, -0.5
*EQUATION
3
1502, 3, 1.0, 857, 3, -0.5, 858, 3, -0.5
*EQUATION
5
1503, 1, 1.0, 854, 1, -0.25, 902, 1, -0.25, 905, 1, -0.25, 857, 1, -0.25
*EQUATION
5
1503, 2, 1.0, 854, 2, -0.25, 902, 2, -0.25, 905, 2, -0.25, 857, 2, -0.25
*EQUATION
5
1503, 3, 1.0, 854, 3, -0.25, 902, 3, -0.25, 905, 3, -0.25, 857, 3, -0.25
*EQUATION
3
1506, 1, 1.0, 857, 1, -0.5, 905, 1, -0.5
*EQUATION
3
1506, 2, 1.0, 857, 2, -0.5, 905, 2, -0.5
*EQUATION
3
1506, 3, 1.0, 857, 3, -0.5, 905, 3, -0.5
*EQUATION
3
1509, 1, 1.0, 902, 1, -0.5, 905, 1, -0.5
*EQUATION
3
1509, 2, 1.0, 902, 2, -0.5, 905, 2, -0.5
*EQUATION
3
1509, 3, 1.0, 902, 3, -0.5, 905, 3, -0.5
*EQUATION
3
1513, 1, 1.0, 857, 1, -0.5, 860, 1, -0.5
*EQUATION
3
1513, 2, 1.0, 857, 2, -0.5, 860, 2, -0.5
*EQUATION
3
1513, 3, 1.0, 857, 3, -0.5, 860, 3, -0.5
*EQUATION
5
1514, 1, 1.0, 857, 1, -0.25, 860, 1, -0.25, 861, 1, -0.25, 858, 1, -0.25
*EQUATION
5
1514, 2, 1.0, 857, 2, -0.25, 860, 2, -0.25, 861, 2, -0.25, 858, 2, -0.25
*EQUATION
5
1514, 3, 1.0, 857, 3, -0.25, 860, 3, -0.25, 861, 3, -0.25, 858, 3, -0.25
*EQUATION
3
1515, 1, 1.0, 858, 1, -0.5, 861, 1, -0.5
*EQUATION
3
1515, 2, 1.0, 858, 2, -0.5, 861, 2, -0.5
*EQUATION
3
1515, 3, 1.0, 858, 3, -0.5, 861, 3, -0.5
*EQUATION
3
1516, 1, 1.0, 860, 1, -0.5, 861, 1, -0.5
*EQUATION
3
1516, 2, 1.0, 860, 2, -0.5, 861, 2, -0.5
*EQUATION
3
1516, 3, 1.0, 860, 3, -0.5, 861, 3, -0.5
*EQUATION
5
1517, 1, 1.0, 857, 1, -0.25, 905, 1, -0.25, 908, 1, -0.25, 860, 1, -0.25
*EQUATION
5
1517, 2, 1.0, 857, 2, -0.25, 905, 2, -0.25, 908, 2, -0.25, 860, 2, -0.25
*EQUATION
5
1517, 3, 1.0, 857, 3, -0.25, 905, 3, -0.25, 908, 3, -0.25, 860, 3, -0.25
*EQUATION
3
1520, 1, 1.0, 860, 1, -0.5, 908, 1, -0.5
*EQUATION
3
1520, 2, 1.0, 860, 2, -0.5, 908, 2, -0.5
*EQUATION
3
1520, 3, 1.0, 860, 3, -0.5, 908, 3, -0.5
*EQUATION
3
1523, 1, 1.0, 905, 1, -0.5, 908, 1, -0.5
*EQUATION
3
1523, 2, 1.0, 905, 2, -0.5, 908, 2, -0.5
*EQUATION
3
1523, 3, 1.0, 905, 3, -0.5, 908, 3, -0.5
*EQUATION
3
1527, 1, 1.0, 860, 1, -0.5, 863, 1, -0.5
*EQUATION
3
1527, 2, 1.0, 860, 2, -0.5, 863, 2, -0.5
*EQUATION
3
1527, 3, 1.0, 860, 3, -0.5, 863, 3, -0.5
*EQUATION
5
1528, 1, 1.0, 860, 1, -0.25, 863, 1, -0.25, 864, 1, -0.25, 861, 1, -0.25
*EQUATION
5
1528, 2, 1.0, 860, 2, -0.25, 863, 2, -0.25, 864, 2, -0.25, 861, 2, -0.25
*EQUATION
5
1528, 3, 1.0, 860, 3, -0.25, 863, 3, -0.25, 864, 3, -0.25, 861, 3, -0.25
*EQUATION
3
1529, 1, 1.0, 861, 1, -0.5, 864, 1, -0.5
*EQUATION
3
1529, 2, 1.0, 861, 2, -0.5, 864, 2, -0.5
*EQUATION
3
1529, 3, 1.0, 861, 3, -0.5, 864, 3, -0.5
*EQUATION
3
1530, 1, 1.0, 863, 1, -0.5, 864, 1, -0.5
*EQUATION
3
1530, 2, 1.0, 863, 2, -0.5, 864, 2, -0.5
*EQUATION
3
1530, 3, 1.0, 863, 3, -0.5, 864, 3, -0.5
*EQUATION
5
1531, 1, 1.0, 860, 1, -0.25, 908, 1, -0.25, 911, 1, -0.25, 863, 1, -0.25
*EQUATION
5
1531, 2, 1.0, 860, 2, -0.25, 908, 2, -0.25, 911, 2, -0.25, 863, 2, -0.25
*EQUATION
5
1531, 3, 1.0, 860, 3, -0.25, 908, 3, -0.25, 911, 3, -0.25, 863, 3, -0.25
*EQUATION
3
1534, 1, 1.0, 863, 1, -0.5, 911, 1, -0.5
*EQUATION
3
1534, 2, 1.0, 863, 2, -0.5, 911, 2, -0.5
*EQUATION
3
1534, 3, 1.0, 863, 3, -0.5, 911, 3, -0.5
*EQUATION
3
1537, 1, 1.0, 908, 1, -0.5, 911, 1, -0.5
*EQUATION
3
1537, 2, 1.0, 908, 2, -0.5, 911, 2, -0.5
*EQUATION
3
1537, 3, 1.0, 908, 3, -0.5, 911, 3, -0.5
*BOUNDARY
CLAMP, 1, 3, 0.0
*STEP
*STATIC
*CLOAD
887, 3, -238.095238095
888, 3, -238.095238095
891, 3, -238.095238095
894, 3, -238.095238095
896, 3, -238.095238095
898, 3, -238.095238095
900, 3, -238.095238095
903, 3, -238.095238095
906, 3, -238.095238095
909, 3, -238.095238095
912, 3, -238.095238095
1378, 3, -238.095238095
1392, 3, -238.095238095
1406, 3, -238.095238095
1433, 3, -238.095238095
1453, 3, -238.095238095
1473, 3, -238.095238095
1497, 3, -238.095238095
1511, 3, -238.095238095
1525, 3, -238.095238095
1539, 3, -238.095238095
*NODE FILE
U
*EL FILE
S, ENER
*NODE PRINT, NSET=TIP_TOP
U
*NODE PRINT, NSET=CLAMP
RF
*EL PRINT, ELSET=EALL
ELSE
*ENERGY PRINT
*END STEP
