*HEADING
G01 S-LIN hanging 8-split zz cycle 1
units: mm, N, s, MPa. Material is illustrative steel, not a coupon card.
E=210000.0 nu=0.3. load -5000.0 N on TIP_TOP.
*NODE, NSET=NALL
1, 0, -10, 0
2, 111.111111111, -10, 0
3, 111.111111111, 0, 0
4, 0, 0, 0
5, 0, -10, 28
6, 111.111111111, -10, 28
7, 111.111111111, 0, 28
8, 0, 0, 28
9, 0, -10, 56
10, 111.111111111, -10, 56
11, 111.111111111, 0, 56
12, 0, 0, 56
13, 0, -10, 84
14, 111.111111111, -10, 84
15, 111.111111111, 0, 84
16, 0, 0, 84
17, 0, -10, 112
18, 111.111111111, -10, 112
19, 111.111111111, 0, 112
20, 0, 0, 112
** ... 1337 like lines cut
*ELEMENT, TYPE=C3D8, ELSET=EALL
1, 1, 918, 921, 914, 913, 919, 922, 915
2, 913, 919, 922, 915, 5, 920, 923, 916
3, 914, 921, 924, 4, 915, 922, 925, 917
4, 915, 922, 925, 917, 916, 923, 926, 8
5, 918, 2, 928, 921, 919, 927, 929, 922
6, 919, 927, 929, 922, 920, 6, 930, 923
7, 921, 928, 3, 924, 922, 929, 931, 925
8, 922, 929, 931, 925, 923, 930, 7, 926
9, 5, 920, 923, 916, 932, 936, 938, 933
10, 932, 936, 938, 933, 9, 937, 939, 934
11, 916, 923, 926, 8, 933, 938, 940, 935
12, 933, 938, 940, 935, 934, 939, 941, 12
13, 920, 6, 930, 923, 936, 942, 943, 938
14, 936, 942, 943, 938, 937, 10, 944, 939
15, 923, 930, 7, 926, 938, 943, 945, 940
16, 938, 943, 945, 940, 939, 944, 11, 941
17, 9, 10, 11, 12, 13, 14, 15, 16
18, 13, 14, 15, 16, 17, 18, 19, 20
19, 17, 18, 19, 20, 21, 22, 23, 24
20, 4, 924, 950, 946, 917, 925, 951, 947
** ... 751 like lines cut
*NSET, NSET=CLAMP
1, 4, 5, 8, 9, 12, 13, 16, 17, 20, 21, 24, 26, 28, 30, 32
34, 36, 37, 40, 41, 44, 45, 48, 50, 52, 54, 56, 58, 60, 62, 64
66, 68, 70, 72, 74, 76, 78, 80, 82, 84, 86, 88, 90, 92, 94, 96
913, 914, 915, 916, 917, 932, 933, 934, 935, 946, 947, 948, 949, 960, 961, 962
*NSET, NSET=TIP_TOP
887, 888, 891, 894, 896, 898, 900, 903, 906, 909, 912
*MATERIAL, NAME=STEEL
*ELASTIC
210000, 0.3
*SOLID SECTION, ELSET=EALL, MATERIAL=STEEL
*EQUATION
3
937, 1, 1.0, 9, 1, -0.5, 10, 1, -0.5
*EQUATION
3
937, 2, 1.0, 9, 2, -0.5, 10, 2, -0.5
*EQUATION
3
937, 3, 1.0, 9, 3, -0.5, 10, 3, -0.5
*EQUATION
5
939, 1, 1.0, 9, 1, -0.25, 10, 1, -0.25, 11, 1, -0.25, 12, 1, -0.25
*EQUATION
5
939, 2, 1.0, 9, 2, -0.25, 10, 2, -0.25, 11, 2, -0.25, 12, 2, -0.25
*EQUATION
5
939, 3, 1.0, 9, 3, -0.25, 10, 3, -0.25, 11, 3, -0.25, 12, 3, -0.25
*EQUATION
3
941, 1, 1.0, 11, 1, -0.5, 12, 1, -0.5
*EQUATION
3
941, 2, 1.0, 11, 2, -0.5, 12, 2, -0.5
*EQUATION
3
941, 3, 1.0, 11, 3, -0.5, 12, 3, -0.5
*EQUATION
3
944, 1, 1.0, 10, 1, -0.5, 11, 1, -0.5
*EQUATION
3
944, 2, 1.0, 10, 2, -0.5, 11, 2, -0.5
*EQUATION
3
944, 3, 1.0, 10, 3, -0.5, 11, 3, -0.5
*EQUATION
5
964, 1, 1.0, 12, 1, -0.25, 11, 1, -0.25, 29, 1, -0.25, 30, 1, -0.25
*EQUATION
5
964, 2, 1.0, 12, 2, -0.25, 11, 2, -0.25, 29, 2, -0.25, 30, 2, -0.25
*EQUATION
5
964, 3, 1.0, 12, 3, -0.25, 11, 3, -0.25, 29, 3, -0.25, 30, 3, -0.25
*EQUATION
3
966, 1, 1.0, 29, 1, -0.5, 30, 1, -0.5
*EQUATION
3
966, 2, 1.0, 29, 2, -0.5, 30, 2, -0.5
*EQUATION
3
966, 3, 1.0, 29, 3, -0.5, 30, 3, -0.5
*EQUATION
3
968, 1, 1.0, 11, 1, -0.5, 29, 1, -0.5
*EQUATION
3
968, 2, 1.0, 11, 2, -0.5, 29, 2, -0.5
*EQUATION
3
968, 3, 1.0, 11, 3, -0.5, 29, 3, -0.5
*EQUATION
3
982, 1, 1.0, 99, 1, -0.5, 100, 1, -0.5
*EQUATION
3
982, 2, 1.0, 99, 2, -0.5, 100, 2, -0.5
*EQUATION
3
982, 3, 1.0, 99, 3, -0.5, 100, 3, -0.5
*EQUATION
3
990, 1, 1.0, 99, 1, -0.5, 101, 1, -0.5
*EQUATION
3
990, 2, 1.0, 99, 2, -0.5, 101, 2, -0.5
*EQUATION
3
990, 3, 1.0, 99, 3, -0.5, 101, 3, -0.5
*EQUATION
5
991, 1, 1.0, 99, 1, -0.25, 100, 1, -0.25, 102, 1, -0.25, 101, 1, -0.25
*EQUATION
5
991, 2, 1.0, 99, 2, -0.25, 100, 2, -0.25, 102, 2, -0.25, 101, 2, -0.25
*EQUATION
5
991, 3, 1.0, 99, 3, -0.25, 100, 3, -0.25, 102, 3, -0.25, 101, 3, -0.25
*EQUATION
3
992, 1, 1.0, 101, 1, -0.5, 102, 1, -0.5
*EQUATION
3
992, 2, 1.0, 101, 2, -0.5, 102, 2, -0.5
*EQUATION
3
992, 3, 1.0, 101, 3, -0.5, 102, 3, -0.5
*EQUATION
3
993, 1, 1.0, 100, 1, -0.5, 102, 1, -0.5
*EQUATION
3
993, 2, 1.0, 100, 2, -0.5, 102, 2, -0.5
*EQUATION
3
993, 3, 1.0, 100, 3, -0.5, 102, 3, -0.5
*EQUATION
3
994, 1, 1.0, 10, 1, -0.5, 14, 1, -0.5
*EQUATION
3
994, 2, 1.0, 10, 2, -0.5, 14, 2, -0.5
*EQUATION
3
994, 3, 1.0, 10, 3, -0.5, 14, 3, -0.5
*EQUATION
5
995, 1, 1.0, 10, 1, -0.25, 11, 1, -0.25, 15, 1, -0.25, 14, 1, -0.25
*EQUATION
5
995, 2, 1.0, 10, 2, -0.25, 11, 2, -0.25, 15, 2, -0.25, 14, 2, -0.25
*EQUATION
5
995, 3, 1.0, 10, 3, -0.25, 11, 3, -0.25, 15, 3, -0.25, 14, 3, -0.25
*EQUATION
3
996, 1, 1.0, 14, 1, -0.5, 15, 1, -0.5
*EQUATION
3
996, 2, 1.0, 14, 2, -0.5, 15, 2, -0.5
*EQUATION
3
996, 3, 1.0, 14, 3, -0.5, 15, 3, -0.5
*EQUATION
3
997, 1, 1.0, 11, 1, -0.5, 15, 1, -0.5
*EQUATION
3
997, 2, 1.0, 11, 2, -0.5, 15, 2, -0.5
*EQUATION
3
997, 3, 1.0, 11, 3, -0.5, 15, 3, -0.5
*EQUATION
3
999, 1, 1.0, 14, 1, -0.5, 103, 1, -0.5
*EQUATION
3
999, 2, 1.0, 14, 2, -0.5, 103, 2, -0.5
*EQUATION
3
999, 3, 1.0, 14, 3, -0.5, 103, 3, -0.5
*EQUATION
5
1001, 1, 1.0, 14, 1, -0.25, 103, 1, -0.25, 104, 1, -0.25, 15, 1, -0.25
*EQUATION
5
1001, 2, 1.0, 14, 2, -0.25, 103, 2, -0.25, 104, 2, -0.25, 15, 2, -0.25
*EQUATION
5
1001, 3, 1.0, 14, 3, -0.25, 103, 3, -0.25, 104, 3, -0.25, 15, 3, -0.25
*EQUATION
3
1003, 1, 1.0, 15, 1, -0.5, 104, 1, -0.5
*EQUATION
3
1003, 2, 1.0, 15, 2, -0.5, 104, 2, -0.5
*EQUATION
3
1003, 3, 1.0, 15, 3, -0.5, 104, 3, -0.5
*EQUATION
3
1004, 1, 1.0, 101, 1, -0.5, 103, 1, -0.5
*EQUATION
3
1004, 2, 1.0, 101, 2, -0.5, 103, 2, -0.5
*EQUATION
3
1004, 3, 1.0, 101, 3, -0.5, 103, 3, -0.5
*EQUATION
5
1005, 1, 1.0, 101, 1, -0.25, 102, 1, -0.25, 104, 1, -0.25, 103, 1, -0.25
*EQUATION
5
1005, 2, 1.0, 101, 2, -0.25, 102, 2, -0.25, 104, 2, -0.25, 103, 2, -0.25
*EQUATION
5
1005, 3, 1.0, 101, 3, -0.25, 102, 3, -0.25, 104, 3, -0.25, 103, 3, -0.25
*EQUATION
3
1006, 1, 1.0, 103, 1, -0.5, 104, 1, -0.5
*EQUATION
3
1006, 2, 1.0, 103, 2, -0.5, 104, 2, -0.5
*EQUATION
3
1006, 3, 1.0, 103, 3, -0.5, 104, 3, -0.5
*EQUATION
3
1007, 1, 1.0, 102, 1, -0.5, 104, 1, -0.5
*EQUATION
3
1007, 2, 1.0, 102, 2, -0.5, 104, 2, -0.5
*EQUATION
3
1007, 3, 1.0, 102, 3, -0.5, 104, 3, -0.5
*EQUATION
3
1008, 1, 1.0, 18, 1, -0.5, 22, 1, -0.5
*EQUATION
3
1008, 2, 1.0, 18, 2, -0.5, 22, 2, -0.5
*EQUATION
3
1008, 3, 1.0, 18, 3, -0.5, 22, 3, -0.5
*EQUATION
3
1009, 1, 1.0, 18, 1, -0.5, 19, 1, -0.5
*EQUATION
3
1009, 2, 1.0, 18, 2, -0.5, 19, 2, -0.5
*EQUATION
3
1009, 3, 1.0, 18, 3, -0.5, 19, 3, -0.5
*EQUATION
5
1010, 1, 1.0, 18, 1, -0.25, 19, 1, -0.25, 23, 1, -0.25, 22, 1, -0.25
*EQUATION
5
1010, 2, 1.0, 18, 2, -0.25, 19, 2, -0.25, 23, 2, -0.25, 22, 2, -0.25
*EQUATION
5
1010, 3, 1.0, 18, 3, -0.25, 19, 3, -0.25, 23, 3, -0.25, 22, 3, -0.25
*EQUATION
3
1011, 1, 1.0, 22, 1, -0.5, 23, 1, -0.5
*EQUATION
3
1011, 2, 1.0, 22, 2, -0.5, 23, 2, -0.5
*EQUATION
3
1011, 3, 1.0, 22, 3, -0.5, 23, 3, -0.5
*EQUATION
3
1012, 1, 1.0, 19, 1, -0.5, 23, 1, -0.5
*EQUATION
3
1012, 2, 1.0, 19, 2, -0.5, 23, 2, -0.5
*EQUATION
3
1012, 3, 1.0, 19, 3, -0.5, 23, 3, -0.5
*EQUATION
3
1013, 1, 1.0, 18, 1, -0.5, 105, 1, -0.5
*EQUATION
3
1013, 2, 1.0, 18, 2, -0.5, 105, 2, -0.5
*EQUATION
3
1013, 3, 1.0, 18, 3, -0.5, 105, 3, -0.5
*EQUATION
3
1015, 1, 1.0, 22, 1, -0.5, 107, 1, -0.5
*EQUATION
3
1015, 2, 1.0, 22, 2, -0.5, 107, 2, -0.5
*EQUATION
3
1015, 3, 1.0, 22, 3, -0.5, 107, 3, -0.5
*EQUATION
5
1016, 1, 1.0, 18, 1, -0.25, 105, 1, -0.25, 106, 1, -0.25, 19, 1, -0.25
*EQUATION
5
1016, 2, 1.0, 18, 2, -0.25, 105, 2, -0.25, 106, 2, -0.25, 19, 2, -0.25
*EQUATION
5
1016, 3, 1.0, 18, 3, -0.25, 105, 3, -0.25, 106, 3, -0.25, 19, 3, -0.25
*EQUATION
5
1018, 1, 1.0, 22, 1, -0.25, 107, 1, -0.25, 108, 1, -0.25, 23, 1, -0.25
*EQUATION
5
1018, 2, 1.0, 22, 2, -0.25, 107, 2, -0.25, 108, 2, -0.25, 23, 2, -0.25
*EQUATION
5
1018, 3, 1.0, 22, 3, -0.25, 107, 3, -0.25, 108, 3, -0.25, 23, 3, -0.25
*EQUATION
3
1019, 1, 1.0, 19, 1, -0.5, 106, 1, -0.5
*EQUATION
3
1019, 2, 1.0, 19, 2, -0.5, 106, 2, -0.5
*EQUATION
3
1019, 3, 1.0, 19, 3, -0.5, 106, 3, -0.5
*EQUATION
5
1020, 1, 1.0, 19, 1, -0.25, 106, 1, -0.25, 108, 1, -0.25, 23, 1, -0.25
*EQUATION
5
1020, 2, 1.0, 19, 2, -0.25, 106, 2, -0.25, 108, 2, -0.25, 23, 2, -0.25
*EQUATION
5
1020, 3, 1.0, 19, 3, -0.25, 106, 3, -0.25, 108, 3, -0.25, 23, 3, -0.25
*EQUATION
3
1021, 1, 1.0, 23, 1, -0.5, 108, 1, -0.5
*EQUATION
3
1021, 2, 1.0, 23, 2, -0.5, 108, 2, -0.5
*EQUATION
3
1021, 3, 1.0, 23, 3, -0.5, 108, 3, -0.5
*EQUATION
3
1022, 1, 1.0, 105, 1, -0.5, 107, 1, -0.5
*EQUATION
3
1022, 2, 1.0, 105, 2, -0.5, 107, 2, -0.5
*EQUATION
3
1022, 3, 1.0, 105, 3, -0.5, 107, 3, -0.5
*EQUATION
3
1023, 1, 1.0, 105, 1, -0.5, 106, 1, -0.5
*EQUATION
3
1023, 2, 1.0, 105, 2, -0.5, 106, 2, -0.5
*EQUATION
3
1023, 3, 1.0, 105, 3, -0.5, 106, 3, -0.5
*EQUATION
5
1024, 1, 1.0, 105, 1, -0.25, 106, 1, -0.25, 108, 1, -0.25, 107, 1, -0.25
*EQUATION
5
1024, 2, 1.0, 105, 2, -0.25, 106, 2, -0.25, 108, 2, -0.25, 107, 2, -0.25
*EQUATION
5
1024, 3, 1.0, 105, 3, -0.25, 106, 3, -0.25, 108, 3, -0.25, 107, 3, -0.25
*EQUATION
3
1025, 1, 1.0, 107, 1, -0.5, 108, 1, -0.5
*EQUATION
3
1025, 2, 1.0, 107, 2, -0.5, 108, 2, -0.5
*EQUATION
3
1025, 3, 1.0, 107, 3, -0.5, 108, 3, -0.5
*EQUATION
3
1026, 1, 1.0, 106, 1, -0.5, 108, 1, -0.5
*EQUATION
3
1026, 2, 1.0, 106, 2, -0.5, 108, 2, -0.5
*EQUATION
3
1026, 3, 1.0, 106, 3, -0.5, 108, 3, -0.5
*EQUATION
3
1035, 1, 1.0, 100, 1, -0.5, 110, 1, -0.5
*EQUATION
3
1035, 2, 1.0, 100, 2, -0.5, 110, 2, -0.5
*EQUATION
3
1035, 3, 1.0, 100, 3, -0.5, 110, 3, -0.5
*EQUATION
5
1041, 1, 1.0, 100, 1, -0.25, 110, 1, -0.25, 111, 1, -0.25, 102, 1, -0.25
*EQUATION
5
1041, 2, 1.0, 100, 2, -0.25, 110, 2, -0.25, 111, 2, -0.25, 102, 2, -0.25
*EQUATION
5
1041, 3, 1.0, 100, 3, -0.25, 110, 3, -0.25, 111, 3, -0.25, 102, 3, -0.25
*EQUATION
3
1042, 1, 1.0, 102, 1, -0.5, 111, 1, -0.5
*EQUATION
3
1042, 2, 1.0, 102, 2, -0.5, 111, 2, -0.5
*EQUATION
3
1042, 3, 1.0, 102, 3, -0.5, 111, 3, -0.5
*EQUATION
3
1043, 1, 1.0, 110, 1, -0.5, 111, 1, -0.5
*EQUATION
3
1043, 2, 1.0, 110, 2, -0.5, 111, 2, -0.5
*EQUATION
3
1043, 3, 1.0, 110, 3, -0.5, 111, 3, -0.5
*EQUATION
5
1044, 1, 1.0, 11, 1, -0.25, 29, 1, -0.25, 31, 1, -0.25, 15, 1, -0.25
*EQUATION
5
1044, 2, 1.0, 11, 2, -0.25, 29, 2, -0.25, 31, 2, -0.25, 15, 2, -0.25
*EQUATION
5
1044, 3, 1.0, 11, 3, -0.25, 29, 3, -0.25, 31, 3, -0.25, 15, 3, -0.25
*EQUATION
3
1045, 1, 1.0, 15, 1, -0.5, 31, 1, -0.5
*EQUATION
3
1045, 2, 1.0, 15, 2, -0.5, 31, 2, -0.5
*EQUATION
3
1045, 3, 1.0, 15, 3, -0.5, 31, 3, -0.5
*EQUATION
3
1046, 1, 1.0, 29, 1, -0.5, 31, 1, -0.5
*EQUATION
3
1046, 2, 1.0, 29, 2, -0.5, 31, 2, -0.5
*EQUATION
3
1046, 3, 1.0, 29, 3, -0.5, 31, 3, -0.5
*EQUATION
5
1048, 1, 1.0, 15, 1, -0.25, 104, 1, -0.25, 112, 1, -0.25, 31, 1, -0.25
*EQUATION
5
1048, 2, 1.0, 15, 2, -0.25, 104, 2, -0.25, 112, 2, -0.25, 31, 2, -0.25
*EQUATION
5
1048, 3, 1.0, 15, 3, -0.25, 104, 3, -0.25, 112, 3, -0.25, 31, 3, -0.25
*EQUATION
3
1050, 1, 1.0, 31, 1, -0.5, 112, 1, -0.5
*EQUATION
3
1050, 2, 1.0, 31, 2, -0.5, 112, 2, -0.5
*EQUATION
3
1050, 3, 1.0, 31, 3, -0.5, 112, 3, -0.5
*EQUATION
5
1051, 1, 1.0, 102, 1, -0.25, 111, 1, -0.25, 112, 1, -0.25, 104, 1, -0.25
*EQUATION
5
1051, 2, 1.0, 102, 2, -0.25, 111, 2, -0.25, 112, 2, -0.25, 104, 2, -0.25
*EQUATION
5
1051, 3, 1.0, 102, 3, -0.25, 111, 3, -0.25, 112, 3, -0.25, 104, 3, -0.25
*EQUATION
3
1052, 1, 1.0, 104, 1, -0.5, 112, 1, -0.5
*EQUATION
3
1052, 2, 1.0, 104, 2, -0.5, 112, 2, -0.5
*EQUATION
3
1052, 3, 1.0, 104, 3, -0.5, 112, 3, -0.5
*EQUATION
3
1053, 1, 1.0, 111, 1, -0.5, 112, 1, -0.5
*EQUATION
3
1053, 2, 1.0, 111, 2, -0.5, 112, 2, -0.5
*EQUATION
3
1053, 3, 1.0, 111, 3, -0.5, 112, 3, -0.5
*EQUATION
3
1054, 1, 1.0, 42, 1, -0.5, 46, 1, -0.5
*EQUATION
3
1054, 2, 1.0, 42, 2, -0.5, 46, 2, -0.5
*EQUATION
3
1054, 3, 1.0, 42, 3, -0.5, 46, 3, -0.5
*EQUATION
3
1055, 1, 1.0, 42, 1, -0.5, 43, 1, -0.5
*EQUATION
3
1055, 2, 1.0, 42, 2, -0.5, 43, 2, -0.5
*EQUATION
3
1055, 3, 1.0, 42, 3, -0.5, 43, 3, -0.5
*EQUATION
5
1056, 1, 1.0, 42, 1, -0.25, 43, 1, -0.25, 47, 1, -0.25, 46, 1, -0.25
*EQUATION
5
1056, 2, 1.0, 42, 2, -0.25, 43, 2, -0.25, 47, 2, -0.25, 46, 2, -0.25
*EQUATION
5
1056, 3, 1.0, 42, 3, -0.25, 43, 3, -0.25, 47, 3, -0.25, 46, 3, -0.25
*EQUATION
3
1057, 1, 1.0, 46, 1, -0.5, 47, 1, -0.5
*EQUATION
3
1057, 2, 1.0, 46, 2, -0.5, 47, 2, -0.5
*EQUATION
3
1057, 3, 1.0, 46, 3, -0.5, 47, 3, -0.5
*EQUATION
3
1058, 1, 1.0, 43, 1, -0.5, 47, 1, -0.5
*EQUATION
3
1058, 2, 1.0, 43, 2, -0.5, 47, 2, -0.5
*EQUATION
3
1058, 3, 1.0, 43, 3, -0.5, 47, 3, -0.5
*EQUATION
3
1059, 1, 1.0, 42, 1, -0.5, 117, 1, -0.5
*EQUATION
3
1059, 2, 1.0, 42, 2, -0.5, 117, 2, -0.5
*EQUATION
3
1059, 3, 1.0, 42, 3, -0.5, 117, 3, -0.5
*EQUATION
5
1062, 1, 1.0, 42, 1, -0.25, 117, 1, -0.25, 118, 1, -0.25, 43, 1, -0.25
*EQUATION
5
1062, 2, 1.0, 42, 2, -0.25, 117, 2, -0.25, 118, 2, -0.25, 43, 2, -0.25
*EQUATION
5
1062, 3, 1.0, 42, 3, -0.25, 117, 3, -0.25, 118, 3, -0.25, 43, 3, -0.25
*EQUATION
3
1065, 1, 1.0, 43, 1, -0.5, 118, 1, -0.5
*EQUATION
3
1065, 2, 1.0, 43, 2, -0.5, 118, 2, -0.5
*EQUATION
3
1065, 3, 1.0, 43, 3, -0.5, 118, 3, -0.5
*EQUATION
3
1068, 1, 1.0, 117, 1, -0.5, 119, 1, -0.5
*EQUATION
3
1068, 2, 1.0, 117, 2, -0.5, 119, 2, -0.5
*EQUATION
3
1068, 3, 1.0, 117, 3, -0.5, 119, 3, -0.5
*EQUATION
3
1069, 1, 1.0, 117, 1, -0.5, 118, 1, -0.5
*EQUATION
3
1069, 2, 1.0, 117, 2, -0.5, 118, 2, -0.5
*EQUATION
3
1069, 3, 1.0, 117, 3, -0.5, 118, 3, -0.5
*EQUATION
5
1070, 1, 1.0, 117, 1, -0.25, 118, 1, -0.25, 120, 1, -0.25, 119, 1, -0.25
*EQUATION
5
1070, 2, 1.0, 117, 2, -0.25, 118, 2, -0.25, 120, 2, -0.25, 119, 2, -0.25
*EQUATION
5
1070, 3, 1.0, 117, 3, -0.25, 118, 3, -0.25, 120, 3, -0.25, 119, 3, -0.25
*EQUATION
3
1071, 1, 1.0, 119, 1, -0.5, 120, 1, -0.5
*EQUATION
3
1071, 2, 1.0, 119, 2, -0.5, 120, 2, -0.5
*EQUATION
3
1071, 3, 1.0, 119, 3, -0.5, 120, 3, -0.5
*EQUATION
3
1072, 1, 1.0, 118, 1, -0.5, 120, 1, -0.5
*EQUATION
3
1072, 2, 1.0, 118, 2, -0.5, 120, 2, -0.5
*EQUATION
3
1072, 3, 1.0, 118, 3, -0.5, 120, 3, -0.5
*EQUATION
3
1073, 1, 1.0, 43, 1, -0.5, 51, 1, -0.5
*EQUATION
3
1073, 2, 1.0, 43, 2, -0.5, 51, 2, -0.5
*EQUATION
3
1073, 3, 1.0, 43, 3, -0.5, 51, 3, -0.5
*EQUATION
5
1074, 1, 1.0, 43, 1, -0.25, 51, 1, -0.25, 53, 1, -0.25, 47, 1, -0.25
*EQUATION
5
1074, 2, 1.0, 43, 2, -0.25, 51, 2, -0.25, 53, 2, -0.25, 47, 2, -0.25
*EQUATION
5
1074, 3, 1.0, 43, 3, -0.25, 51, 3, -0.25, 53, 3, -0.25, 47, 3, -0.25
*EQUATION
3
1075, 1, 1.0, 47, 1, -0.5, 53, 1, -0.5
*EQUATION
3
1075, 2, 1.0, 47, 2, -0.5, 53, 2, -0.5
*EQUATION
3
1075, 3, 1.0, 47, 3, -0.5, 53, 3, -0.5
*EQUATION
3
1076, 1, 1.0, 51, 1, -0.5, 53, 1, -0.5
*EQUATION
3
1076, 2, 1.0, 51, 2, -0.5, 53, 2, -0.5
*EQUATION
3
1076, 3, 1.0, 51, 3, -0.5, 53, 3, -0.5
*EQUATION
5
1077, 1, 1.0, 43, 1, -0.25, 118, 1, -0.25, 122, 1, -0.25, 51, 1, -0.25
*EQUATION
5
1077, 2, 1.0, 43, 2, -0.25, 118, 2, -0.25, 122, 2, -0.25, 51, 2, -0.25
*EQUATION
5
1077, 3, 1.0, 43, 3, -0.25, 118, 3, -0.25, 122, 3, -0.25, 51, 3, -0.25
*EQUATION
3
1080, 1, 1.0, 51, 1, -0.5, 122, 1, -0.5
*EQUATION
3
1080, 2, 1.0, 51, 2, -0.5, 122, 2, -0.5
*EQUATION
3
1080, 3, 1.0, 51, 3, -0.5, 122, 3, -0.5
*EQUATION
3
1083, 1, 1.0, 118, 1, -0.5, 122, 1, -0.5
*EQUATION
3
1083, 2, 1.0, 118, 2, -0.5, 122, 2, -0.5
*EQUATION
3
1083, 3, 1.0, 118, 3, -0.5, 122, 3, -0.5
*EQUATION
5
1084, 1, 1.0, 118, 1, -0.25, 122, 1, -0.25, 123, 1, -0.25, 120, 1, -0.25
*EQUATION
5
1084, 2, 1.0, 118, 2, -0.25, 122, 2, -0.25, 123, 2, -0.25, 120, 2, -0.25
*EQUATION
5
1084, 3, 1.0, 118, 3, -0.25, 122, 3, -0.25, 123, 3, -0.25, 120, 3, -0.25
*EQUATION
3
1085, 1, 1.0, 120, 1, -0.5, 123, 1, -0.5
*EQUATION
3
1085, 2, 1.0, 120, 2, -0.5, 123, 2, -0.5
*EQUATION
3
1085, 3, 1.0, 120, 3, -0.5, 123, 3, -0.5
*EQUATION
3
1086, 1, 1.0, 122, 1, -0.5, 123, 1, -0.5
*EQUATION
3
1086, 2, 1.0, 122, 2, -0.5, 123, 2, -0.5
*EQUATION
3
1086, 3, 1.0, 122, 3, -0.5, 123, 3, -0.5
*EQUATION
3
1087, 1, 1.0, 51, 1, -0.5, 57, 1, -0.5
*EQUATION
3
1087, 2, 1.0, 51, 2, -0.5, 57, 2, -0.5
*EQUATION
3
1087, 3, 1.0, 51, 3, -0.5, 57, 3, -0.5
*EQUATION
5
1088, 1, 1.0, 51, 1, -0.25, 57, 1, -0.25, 59, 1, -0.25, 53, 1, -0.25
*EQUATION
5
1088, 2, 1.0, 51, 2, -0.25, 57, 2, -0.25, 59, 2, -0.25, 53, 2, -0.25
*EQUATION
5
1088, 3, 1.0, 51, 3, -0.25, 57, 3, -0.25, 59, 3, -0.25, 53, 3, -0.25
*EQUATION
3
1089, 1, 1.0, 53, 1, -0.5, 59, 1, -0.5
*EQUATION
3
1089, 2, 1.0, 53, 2, -0.5, 59, 2, -0.5
*EQUATION
3
1089, 3, 1.0, 53, 3, -0.5, 59, 3, -0.5
*EQUATION
3
1090, 1, 1.0, 57, 1, -0.5, 59, 1, -0.5
*EQUATION
3
1090, 2, 1.0, 57, 2, -0.5, 59, 2, -0.5
*EQUATION
3
1090, 3, 1.0, 57, 3, -0.5, 59, 3, -0.5
*EQUATION
5
1091, 1, 1.0, 51, 1, -0.25, 122, 1, -0.25, 125, 1, -0.25, 57, 1, -0.25
*EQUATION
5
1091, 2, 1.0, 51, 2, -0.25, 122, 2, -0.25, 125, 2, -0.25, 57, 2, -0.25
*EQUATION
5
1091, 3, 1.0, 51, 3, -0.25, 122, 3, -0.25, 125, 3, -0.25, 57, 3, -0.25
*EQUATION
3
1094, 1, 1.0, 57, 1, -0.5, 125, 1, -0.5
*EQUATION
3
1094, 2, 1.0, 57, 2, -0.5, 125, 2, -0.5
*EQUATION
3
1094, 3, 1.0, 57, 3, -0.5, 125, 3, -0.5
*EQUATION
3
1097, 1, 1.0, 122, 1, -0.5, 125, 1, -0.5
*EQUATION
3
1097, 2, 1.0, 122, 2, -0.5, 125, 2, -0.5
*EQUATION
3
1097, 3, 1.0, 122, 3, -0.5, 125, 3, -0.5
*EQUATION
5
1098, 1, 1.0, 122, 1, -0.25, 125, 1, -0.25, 126, 1, -0.25, 123, 1, -0.25
*EQUATION
5
1098, 2, 1.0, 122, 2, -0.25, 125, 2, -0.25, 126, 2, -0.25, 123, 2, -0.25
*EQUATION
5
1098, 3, 1.0, 122, 3, -0.25, 125, 3, -0.25, 126, 3, -0.25, 123, 3, -0.25
*EQUATION
3
1099, 1, 1.0, 123, 1, -0.5, 126, 1, -0.5
*EQUATION
3
1099, 2, 1.0, 123, 2, -0.5, 126, 2, -0.5
*EQUATION
3
1099, 3, 1.0, 123, 3, -0.5, 126, 3, -0.5
*EQUATION
3
1100, 1, 1.0, 125, 1, -0.5, 126, 1, -0.5
*EQUATION
3
1100, 2, 1.0, 125, 2, -0.5, 126, 2, -0.5
*EQUATION
3
1100, 3, 1.0, 125, 3, -0.5, 126, 3, -0.5
*EQUATION
3
1101, 1, 1.0, 57, 1, -0.5, 61, 1, -0.5
*EQUATION
3
1101, 2, 1.0, 57, 2, -0.5, 61, 2, -0.5
*EQUATION
3
1101, 3, 1.0, 57, 3, -0.5, 61, 3, -0.5
*EQUATION
5
1102, 1, 1.0, 57, 1, -0.25, 61, 1, -0.25, 63, 1, -0.25, 59, 1, -0.25
*EQUATION
5
1102, 2, 1.0, 57, 2, -0.25, 61, 2, -0.25, 63, 2, -0.25, 59, 2, -0.25
*EQUATION
5
1102, 3, 1.0, 57, 3, -0.25, 61, 3, -0.25, 63, 3, -0.25, 59, 3, -0.25
*EQUATION
3
1103, 1, 1.0, 59, 1, -0.5, 63, 1, -0.5
*EQUATION
3
1103, 2, 1.0, 59, 2, -0.5, 63, 2, -0.5
*EQUATION
3
1103, 3, 1.0, 59, 3, -0.5, 63, 3, -0.5
*EQUATION
3
1104, 1, 1.0, 61, 1, -0.5, 63, 1, -0.5
*EQUATION
3
1104, 2, 1.0, 61, 2, -0.5, 63, 2, -0.5
*EQUATION
3
1104, 3, 1.0, 61, 3, -0.5, 63, 3, -0.5
*EQUATION
5
1105, 1, 1.0, 57, 1, -0.25, 125, 1, -0.25, 127, 1, -0.25, 61, 1, -0.25
*EQUATION
5
1105, 2, 1.0, 57, 2, -0.25, 125, 2, -0.25, 127, 2, -0.25, 61, 2, -0.25
*EQUATION
5
1105, 3, 1.0, 57, 3, -0.25, 125, 3, -0.25, 127, 3, -0.25, 61, 3, -0.25
*EQUATION
3
1108, 1, 1.0, 61, 1, -0.5, 127, 1, -0.5
*EQUATION
3
1108, 2, 1.0, 61, 2, -0.5, 127, 2, -0.5
*EQUATION
3
1108, 3, 1.0, 61, 3, -0.5, 127, 3, -0.5
*EQUATION
5
1109, 1, 1.0, 61, 1, -0.25, 127, 1, -0.25, 128, 1, -0.25, 63, 1, -0.25
*EQUATION
5
1109, 2, 1.0, 61, 2, -0.25, 127, 2, -0.25, 128, 2, -0.25, 63, 2, -0.25
*EQUATION
5
1109, 3, 1.0, 61, 3, -0.25, 127, 3, -0.25, 128, 3, -0.25, 63, 3, -0.25
*EQUATION
3
1110, 1, 1.0, 63, 1, -0.5, 128, 1, -0.5
*EQUATION
3
1110, 2, 1.0, 63, 2, -0.5, 128, 2, -0.5
*EQUATION
3
1110, 3, 1.0, 63, 3, -0.5, 128, 3, -0.5
*EQUATION
3
1111, 1, 1.0, 125, 1, -0.5, 127, 1, -0.5
*EQUATION
3
1111, 2, 1.0, 125, 2, -0.5, 127, 2, -0.5
*EQUATION
3
1111, 3, 1.0, 125, 3, -0.5, 127, 3, -0.5
*EQUATION
5
1112, 1, 1.0, 125, 1, -0.25, 127, 1, -0.25, 128, 1, -0.25, 126, 1, -0.25
*EQUATION
5
1112, 2, 1.0, 125, 2, -0.25, 127, 2, -0.25, 128, 2, -0.25, 126, 2, -0.25
*EQUATION
5
1112, 3, 1.0, 125, 3, -0.25, 127, 3, -0.25, 128, 3, -0.25, 126, 3, -0.25
*EQUATION
3
1113, 1, 1.0, 126, 1, -0.5, 128, 1, -0.5
*EQUATION
3
1113, 2, 1.0, 126, 2, -0.5, 128, 2, -0.5
*EQUATION
3
1113, 3, 1.0, 126, 3, -0.5, 128, 3, -0.5
*EQUATION
3
1114, 1, 1.0, 127, 1, -0.5, 128, 1, -0.5
*EQUATION
3
1114, 2, 1.0, 127, 2, -0.5, 128, 2, -0.5
*EQUATION
3
1114, 3, 1.0, 127, 3, -0.5, 128, 3, -0.5
*EQUATION
3
1115, 1, 1.0, 69, 1, -0.5, 71, 1, -0.5
*EQUATION
3
1115, 2, 1.0, 69, 2, -0.5, 71, 2, -0.5
*EQUATION
3
1115, 3, 1.0, 69, 3, -0.5, 71, 3, -0.5
*EQUATION
3
1116, 1, 1.0, 69, 1, -0.5, 75, 1, -0.5
*EQUATION
3
1116, 2, 1.0, 69, 2, -0.5, 75, 2, -0.5
*EQUATION
3
1116, 3, 1.0, 69, 3, -0.5, 75, 3, -0.5
*EQUATION
5
1117, 1, 1.0, 69, 1, -0.25, 75, 1, -0.25, 77, 1, -0.25, 71, 1, -0.25
*EQUATION
5
1117, 2, 1.0, 69, 2, -0.25, 75, 2, -0.25, 77, 2, -0.25, 71, 2, -0.25
*EQUATION
5
1117, 3, 1.0, 69, 3, -0.25, 75, 3, -0.25, 77, 3, -0.25, 71, 3, -0.25
*EQUATION
3
1118, 1, 1.0, 71, 1, -0.5, 77, 1, -0.5
*EQUATION
3
1118, 2, 1.0, 71, 2, -0.5, 77, 2, -0.5
*EQUATION
3
1118, 3, 1.0, 71, 3, -0.5, 77, 3, -0.5
*EQUATION
3
1119, 1, 1.0, 75, 1, -0.5, 77, 1, -0.5
*EQUATION
3
1119, 2, 1.0, 75, 2, -0.5, 77, 2, -0.5
*EQUATION
3
1119, 3, 1.0, 75, 3, -0.5, 77, 3, -0.5
*EQUATION
3
1120, 1, 1.0, 69, 1, -0.5, 131, 1, -0.5
*EQUATION
3
1120, 2, 1.0, 69, 2, -0.5, 131, 2, -0.5
*EQUATION
3
1120, 3, 1.0, 69, 3, -0.5, 131, 3, -0.5
*EQUATION
5
1121, 1, 1.0, 69, 1, -0.25, 131, 1, -0.25, 132, 1, -0.25, 71, 1, -0.25
*EQUATION
5
1121, 2, 1.0, 69, 2, -0.25, 131, 2, -0.25, 132, 2, -0.25, 71, 2, -0.25
*EQUATION
5
1121, 3, 1.0, 69, 3, -0.25, 131, 3, -0.25, 132, 3, -0.25, 71, 3, -0.25
*EQUATION
3
1122, 1, 1.0, 71, 1, -0.5, 132, 1, -0.5
*EQUATION
3
1122, 2, 1.0, 71, 2, -0.5, 132, 2, -0.5
*EQUATION
3
1122, 3, 1.0, 71, 3, -0.5, 132, 3, -0.5
*EQUATION
5
1123, 1, 1.0, 69, 1, -0.25, 131, 1, -0.25, 134, 1, -0.25, 75, 1, -0.25
*EQUATION
5
1123, 2, 1.0, 69, 2, -0.25, 131, 2, -0.25, 134, 2, -0.25, 75, 2, -0.25
*EQUATION
5
1123, 3, 1.0, 69, 3, -0.25, 131, 3, -0.25, 134, 3, -0.25, 75, 3, -0.25
*EQUATION
3
1126, 1, 1.0, 75, 1, -0.5, 134, 1, -0.5
*EQUATION
3
1126, 2, 1.0, 75, 2, -0.5, 134, 2, -0.5
*EQUATION
3
1126, 3, 1.0, 75, 3, -0.5, 134, 3, -0.5
*EQUATION
3
1129, 1, 1.0, 131, 1, -0.5, 132, 1, -0.5
*EQUATION
3
1129, 2, 1.0, 131, 2, -0.5, 132, 2, -0.5
*EQUATION
3
1129, 3, 1.0, 131, 3, -0.5, 132, 3, -0.5
*EQUATION
3
1130, 1, 1.0, 131, 1, -0.5, 134, 1, -0.5
*EQUATION
3
1130, 2, 1.0, 131, 2, -0.5, 134, 2, -0.5
*EQUATION
3
1130, 3, 1.0, 131, 3, -0.5, 134, 3, -0.5
*EQUATION
5
1131, 1, 1.0, 131, 1, -0.25, 134, 1, -0.25, 135, 1, -0.25, 132, 1, -0.25
*EQUATION
5
1131, 2, 1.0, 131, 2, -0.25, 134, 2, -0.25, 135, 2, -0.25, 132, 2, -0.25
*EQUATION
5
1131, 3, 1.0, 131, 3, -0.25, 134, 3, -0.25, 135, 3, -0.25, 132, 3, -0.25
*EQUATION
3
1132, 1, 1.0, 132, 1, -0.5, 135, 1, -0.5
*EQUATION
3
1132, 2, 1.0, 132, 2, -0.5, 135, 2, -0.5
*EQUATION
3
1132, 3, 1.0, 132, 3, -0.5, 135, 3, -0.5
*EQUATION
3
1133, 1, 1.0, 134, 1, -0.5, 135, 1, -0.5
*EQUATION
3
1133, 2, 1.0, 134, 2, -0.5, 135, 2, -0.5
*EQUATION
3
1133, 3, 1.0, 134, 3, -0.5, 135, 3, -0.5
*EQUATION
3
1134, 1, 1.0, 75, 1, -0.5, 81, 1, -0.5
*EQUATION
3
1134, 2, 1.0, 75, 2, -0.5, 81, 2, -0.5
*EQUATION
3
1134, 3, 1.0, 75, 3, -0.5, 81, 3, -0.5
*EQUATION
5
1135, 1, 1.0, 75, 1, -0.25, 81, 1, -0.25, 83, 1, -0.25, 77, 1, -0.25
*EQUATION
5
1135, 2, 1.0, 75, 2, -0.25, 81, 2, -0.25, 83, 2, -0.25, 77, 2, -0.25
*EQUATION
5
1135, 3, 1.0, 75, 3, -0.25, 81, 3, -0.25, 83, 3, -0.25, 77, 3, -0.25
*EQUATION
3
1136, 1, 1.0, 77, 1, -0.5, 83, 1, -0.5
*EQUATION
3
1136, 2, 1.0, 77, 2, -0.5, 83, 2, -0.5
*EQUATION
3
1136, 3, 1.0, 77, 3, -0.5, 83, 3, -0.5
*EQUATION
3
1137, 1, 1.0, 81, 1, -0.5, 83, 1, -0.5
*EQUATION
3
1137, 2, 1.0, 81, 2, -0.5, 83, 2, -0.5
*EQUATION
3
1137, 3, 1.0, 81, 3, -0.5, 83, 3, -0.5
*EQUATION
5
1138, 1, 1.0, 75, 1, -0.25, 134, 1, -0.25, 137, 1, -0.25, 81, 1, -0.25
*EQUATION
5
1138, 2, 1.0, 75, 2, -0.25, 134, 2, -0.25, 137, 2, -0.25, 81, 2, -0.25
*EQUATION
5
1138, 3, 1.0, 75, 3, -0.25, 134, 3, -0.25, 137, 3, -0.25, 81, 3, -0.25
*EQUATION
3
1141, 1, 1.0, 81, 1, -0.5, 137, 1, -0.5
*EQUATION
3
1141, 2, 1.0, 81, 2, -0.5, 137, 2, -0.5
*EQUATION
3
1141, 3, 1.0, 81, 3, -0.5, 137, 3, -0.5
*EQUATION
3
1144, 1, 1.0, 134, 1, -0.5, 137, 1, -0.5
*EQUATION
3
1144, 2, 1.0, 134, 2, -0.5, 137, 2, -0.5
*EQUATION
3
1144, 3, 1.0, 134, 3, -0.5, 137, 3, -0.5
*EQUATION
5
1145, 1, 1.0, 134, 1, -0.25, 137, 1, -0.25, 138, 1, -0.25, 135, 1, -0.25
*EQUATION
5
1145, 2, 1.0, 134, 2, -0.25, 137, 2, -0.25, 138, 2, -0.25, 135, 2, -0.25
*EQUATION
5
1145, 3, 1.0, 134, 3, -0.25, 137, 3, -0.25, 138, 3, -0.25, 135, 3, -0.25
*EQUATION
3
1146, 1, 1.0, 135, 1, -0.5, 138, 1, -0.5
*EQUATION
3
1146, 2, 1.0, 135, 2, -0.5, 138, 2, -0.5
*EQUATION
3
1146, 3, 1.0, 135, 3, -0.5, 138, 3, -0.5
*EQUATION
3
1147, 1, 1.0, 137, 1, -0.5, 138, 1, -0.5
*EQUATION
3
1147, 2, 1.0, 137, 2, -0.5, 138, 2, -0.5
*EQUATION
3
1147, 3, 1.0, 137, 3, -0.5, 138, 3, -0.5
*EQUATION
3
1148, 1, 1.0, 81, 1, -0.5, 87, 1, -0.5
*EQUATION
3
1148, 2, 1.0, 81, 2, -0.5, 87, 2, -0.5
*EQUATION
3
1148, 3, 1.0, 81, 3, -0.5, 87, 3, -0.5
*EQUATION
5
1149, 1, 1.0, 81, 1, -0.25, 87, 1, -0.25, 89, 1, -0.25, 83, 1, -0.25
*EQUATION
5
1149, 2, 1.0, 81, 2, -0.25, 87, 2, -0.25, 89, 2, -0.25, 83, 2, -0.25
*EQUATION
5
1149, 3, 1.0, 81, 3, -0.25, 87, 3, -0.25, 89, 3, -0.25, 83, 3, -0.25
*EQUATION
3
1150, 1, 1.0, 83, 1, -0.5, 89, 1, -0.5
*EQUATION
3
1150, 2, 1.0, 83, 2, -0.5, 89, 2, -0.5
*EQUATION
3
1150, 3, 1.0, 83, 3, -0.5, 89, 3, -0.5
*EQUATION
3
1151, 1, 1.0, 87, 1, -0.5, 89, 1, -0.5
*EQUATION
3
1151, 2, 1.0, 87, 2, -0.5, 89, 2, -0.5
*EQUATION
3
1151, 3, 1.0, 87, 3, -0.5, 89, 3, -0.5
*EQUATION
5
1152, 1, 1.0, 81, 1, -0.25, 137, 1, -0.25, 140, 1, -0.25, 87, 1, -0.25
*EQUATION
5
1152, 2, 1.0, 81, 2, -0.25, 137, 2, -0.25, 140, 2, -0.25, 87, 2, -0.25
*EQUATION
5
1152, 3, 1.0, 81, 3, -0.25, 137, 3, -0.25, 140, 3, -0.25, 87, 3, -0.25
*EQUATION
3
1155, 1, 1.0, 87, 1, -0.5, 140, 1, -0.5
*EQUATION
3
1155, 2, 1.0, 87, 2, -0.5, 140, 2, -0.5
*EQUATION
3
1155, 3, 1.0, 87, 3, -0.5, 140, 3, -0.5
*EQUATION
3
1158, 1, 1.0, 137, 1, -0.5, 140, 1, -0.5
*EQUATION
3
1158, 2, 1.0, 137, 2, -0.5, 140, 2, -0.5
*EQUATION
3
1158, 3, 1.0, 137, 3, -0.5, 140, 3, -0.5
*EQUATION
5
1159, 1, 1.0, 137, 1, -0.25, 140, 1, -0.25, 141, 1, -0.25, 138, 1, -0.25
*EQUATION
5
1159, 2, 1.0, 137, 2, -0.25, 140, 2, -0.25, 141, 2, -0.25, 138, 2, -0.25
*EQUATION
5
1159, 3, 1.0, 137, 3, -0.25, 140, 3, -0.25, 141, 3, -0.25, 138, 3, -0.25
*EQUATION
3
1160, 1, 1.0, 138, 1, -0.5, 141, 1, -0.5
*EQUATION
3
1160, 2, 1.0, 138, 2, -0.5, 141, 2, -0.5
*EQUATION
3
1160, 3, 1.0, 138, 3, -0.5, 141, 3, -0.5
*EQUATION
3
1161, 1, 1.0, 140, 1, -0.5, 141, 1, -0.5
*EQUATION
3
1161, 2, 1.0, 140, 2, -0.5, 141, 2, -0.5
*EQUATION
3
1161, 3, 1.0, 140, 3, -0.5, 141, 3, -0.5
*EQUATION
3
1162, 1, 1.0, 87, 1, -0.5, 93, 1, -0.5
*EQUATION
3
1162, 2, 1.0, 87, 2, -0.5, 93, 2, -0.5
*EQUATION
3
1162, 3, 1.0, 87, 3, -0.5, 93, 3, -0.5
*EQUATION
5
1163, 1, 1.0, 87, 1, -0.25, 93, 1, -0.25, 95, 1, -0.25, 89, 1, -0.25
*EQUATION
5
1163, 2, 1.0, 87, 2, -0.25, 93, 2, -0.25, 95, 2, -0.25, 89, 2, -0.25
*EQUATION
5
1163, 3, 1.0, 87, 3, -0.25, 93, 3, -0.25, 95, 3, -0.25, 89, 3, -0.25
*EQUATION
3
1164, 1, 1.0, 89, 1, -0.5, 95, 1, -0.5
*EQUATION
3
1164, 2, 1.0, 89, 2, -0.5, 95, 2, -0.5
*EQUATION
3
1164, 3, 1.0, 89, 3, -0.5, 95, 3, -0.5
*EQUATION
3
1165, 1, 1.0, 93, 1, -0.5, 95, 1, -0.5
*EQUATION
3
1165, 2, 1.0, 93, 2, -0.5, 95, 2, -0.5
*EQUATION
3
1165, 3, 1.0, 93, 3, -0.5, 95, 3, -0.5
*EQUATION
5
1166, 1, 1.0, 87, 1, -0.25, 140, 1, -0.25, 143, 1, -0.25, 93, 1, -0.25
*EQUATION
5
1166, 2, 1.0, 87, 2, -0.25, 140, 2, -0.25, 143, 2, -0.25, 93, 2, -0.25
*EQUATION
5
1166, 3, 1.0, 87, 3, -0.25, 140, 3, -0.25, 143, 3, -0.25, 93, 3, -0.25
*EQUATION
3
1169, 1, 1.0, 93, 1, -0.5, 143, 1, -0.5
*EQUATION
3
1169, 2, 1.0, 93, 2, -0.5, 143, 2, -0.5
*EQUATION
3
1169, 3, 1.0, 93, 3, -0.5, 143, 3, -0.5
*EQUATION
3
1172, 1, 1.0, 140, 1, -0.5, 143, 1, -0.5
*EQUATION
3
1172, 2, 1.0, 140, 2, -0.5, 143, 2, -0.5
*EQUATION
3
1172, 3, 1.0, 140, 3, -0.5, 143, 3, -0.5
*EQUATION
5
1173, 1, 1.0, 140, 1, -0.25, 143, 1, -0.25, 144, 1, -0.25, 141, 1, -0.25
*EQUATION
5
1173, 2, 1.0, 140, 2, -0.25, 143, 2, -0.25, 144, 2, -0.25, 141, 2, -0.25
*EQUATION
5
1173, 3, 1.0, 140, 3, -0.25, 143, 3, -0.25, 144, 3, -0.25, 141, 3, -0.25
*EQUATION
3
1174, 1, 1.0, 141, 1, -0.5, 144, 1, -0.5
*EQUATION
3
1174, 2, 1.0, 141, 2, -0.5, 144, 2, -0.5
*EQUATION
3
1174, 3, 1.0, 141, 3, -0.5, 144, 3, -0.5
*EQUATION
3
1175, 1, 1.0, 143, 1, -0.5, 144, 1, -0.5
*EQUATION
3
1175, 2, 1.0, 143, 2, -0.5, 144, 2, -0.5
*EQUATION
3
1175, 3, 1.0, 143, 3, -0.5, 144, 3, -0.5
*EQUATION
3
1178, 1, 1.0, 99, 1, -0.5, 147, 1, -0.5
*EQUATION
3
1178, 2, 1.0, 99, 2, -0.5, 147, 2, -0.5
*EQUATION
3
1178, 3, 1.0, 99, 3, -0.5, 147, 3, -0.5
*EQUATION
5
1181, 1, 1.0, 99, 1, -0.25, 147, 1, -0.25, 148, 1, -0.25, 100, 1, -0.25
*EQUATION
5
1181, 2, 1.0, 99, 2, -0.25, 147, 2, -0.25, 148, 2, -0.25, 100, 2, -0.25
*EQUATION
5
1181, 3, 1.0, 99, 3, -0.25, 147, 3, -0.25, 148, 3, -0.25, 100, 3, -0.25
*EQUATION
3
1184, 1, 1.0, 100, 1, -0.5, 148, 1, -0.5
*EQUATION
3
1184, 2, 1.0, 100, 2, -0.5, 148, 2, -0.5
*EQUATION
3
1184, 3, 1.0, 100, 3, -0.5, 148, 3, -0.5
*EQUATION
3
1188, 1, 1.0, 147, 1, -0.5, 148, 1, -0.5
*EQUATION
3
1188, 2, 1.0, 147, 2, -0.5, 148, 2, -0.5
*EQUATION
3
1188, 3, 1.0, 147, 3, -0.5, 148, 3, -0.5
*EQUATION
5
1192, 1, 1.0, 100, 1, -0.25, 148, 1, -0.25, 158, 1, -0.25, 110, 1, -0.25
*EQUATION
5
1192, 2, 1.0, 100, 2, -0.25, 148, 2, -0.25, 158, 2, -0.25, 110, 2, -0.25
*EQUATION
5
1192, 3, 1.0, 100, 3, -0.25, 148, 3, -0.25, 158, 3, -0.25, 110, 3, -0.25
*EQUATION
3
1195, 1, 1.0, 110, 1, -0.5, 158, 1, -0.5
*EQUATION
3
1195, 2, 1.0, 110, 2, -0.5, 158, 2, -0.5
*EQUATION
3
1195, 3, 1.0, 110, 3, -0.5, 158, 3, -0.5
*EQUATION
3
1198, 1, 1.0, 148, 1, -0.5, 158, 1, -0.5
*EQUATION
3
1198, 2, 1.0, 148, 2, -0.5, 158, 2, -0.5
*EQUATION
3
1198, 3, 1.0, 148, 3, -0.5, 158, 3, -0.5
*EQUATION
3
1202, 1, 1.0, 147, 1, -0.5, 195, 1, -0.5
*EQUATION
3
1202, 2, 1.0, 147, 2, -0.5, 195, 2, -0.5
*EQUATION
3
1202, 3, 1.0, 147, 3, -0.5, 195, 3, -0.5
*EQUATION
5
1205, 1, 1.0, 147, 1, -0.25, 195, 1, -0.25, 196, 1, -0.25, 148, 1, -0.25
*EQUATION
5
1205, 2, 1.0, 147, 2, -0.25, 195, 2, -0.25, 196, 2, -0.25, 148, 2, -0.25
*EQUATION
5
1205, 3, 1.0, 147, 3, -0.25, 195, 3, -0.25, 196, 3, -0.25, 148, 3, -0.25
*EQUATION
3
1208, 1, 1.0, 148, 1, -0.5, 196, 1, -0.5
*EQUATION
3
1208, 2, 1.0, 148, 2, -0.5, 196, 2, -0.5
*EQUATION
3
1208, 3, 1.0, 148, 3, -0.5, 196, 3, -0.5
*EQUATION
3
1212, 1, 1.0, 195, 1, -0.5, 196, 1, -0.5
*EQUATION
3
1212, 2, 1.0, 195, 2, -0.5, 196, 2, -0.5
*EQUATION
3
1212, 3, 1.0, 195, 3, -0.5, 196, 3, -0.5
*EQUATION
5
1216, 1, 1.0, 148, 1, -0.25, 196, 1, -0.25, 206, 1, -0.25, 158, 1, -0.25
*EQUATION
5
1216, 2, 1.0, 148, 2, -0.25, 196, 2, -0.25, 206, 2, -0.25, 158, 2, -0.25
*EQUATION
5
1216, 3, 1.0, 148, 3, -0.25, 196, 3, -0.25, 206, 3, -0.25, 158, 3, -0.25
*EQUATION
3
1219, 1, 1.0, 158, 1, -0.5, 206, 1, -0.5
*EQUATION
3
1219, 2, 1.0, 158, 2, -0.5, 206, 2, -0.5
*EQUATION
3
1219, 3, 1.0, 158, 3, -0.5, 206, 3, -0.5
*EQUATION
3
1222, 1, 1.0, 196, 1, -0.5, 206, 1, -0.5
*EQUATION
3
1222, 2, 1.0, 196, 2, -0.5, 206, 2, -0.5
*EQUATION
3
1222, 3, 1.0, 196, 3, -0.5, 206, 3, -0.5
*EQUATION
3
1226, 1, 1.0, 195, 1, -0.5, 243, 1, -0.5
*EQUATION
3
1226, 2, 1.0, 195, 2, -0.5, 243, 2, -0.5
*EQUATION
3
1226, 3, 1.0, 195, 3, -0.5, 243, 3, -0.5
*EQUATION
5
1229, 1, 1.0, 195, 1, -0.25, 243, 1, -0.25, 244, 1, -0.25, 196, 1, -0.25
*EQUATION
5
1229, 2, 1.0, 195, 2, -0.25, 243, 2, -0.25, 244, 2, -0.25, 196, 2, -0.25
*EQUATION
5
1229, 3, 1.0, 195, 3, -0.25, 243, 3, -0.25, 244, 3, -0.25, 196, 3, -0.25
*EQUATION
3
1232, 1, 1.0, 196, 1, -0.5, 244, 1, -0.5
*EQUATION
3
1232, 2, 1.0, 196, 2, -0.5, 244, 2, -0.5
*EQUATION
3
1232, 3, 1.0, 196, 3, -0.5, 244, 3, -0.5
*EQUATION
3
1236, 1, 1.0, 243, 1, -0.5, 244, 1, -0.5
*EQUATION
3
1236, 2, 1.0, 243, 2, -0.5, 244, 2, -0.5
*EQUATION
3
1236, 3, 1.0, 243, 3, -0.5, 244, 3, -0.5
*EQUATION
5
1240, 1, 1.0, 196, 1, -0.25, 244, 1, -0.25, 254, 1, -0.25, 206, 1, -0.25
*EQUATION
5
1240, 2, 1.0, 196, 2, -0.25, 244, 2, -0.25, 254, 2, -0.25, 206, 2, -0.25
*EQUATION
5
1240, 3, 1.0, 196, 3, -0.25, 244, 3, -0.25, 254, 3, -0.25, 206, 3, -0.25
*EQUATION
3
1243, 1, 1.0, 206, 1, -0.5, 254, 1, -0.5
*EQUATION
3
1243, 2, 1.0, 206, 2, -0.5, 254, 2, -0.5
*EQUATION
3
1243, 3, 1.0, 206, 3, -0.5, 254, 3, -0.5
*EQUATION
3
1246, 1, 1.0, 244, 1, -0.5, 254, 1, -0.5
*EQUATION
3
1246, 2, 1.0, 244, 2, -0.5, 254, 2, -0.5
*EQUATION
3
1246, 3, 1.0, 244, 3, -0.5, 254, 3, -0.5
*EQUATION
3
1250, 1, 1.0, 243, 1, -0.5, 291, 1, -0.5
*EQUATION
3
1250, 2, 1.0, 243, 2, -0.5, 291, 2, -0.5
*EQUATION
3
1250, 3, 1.0, 243, 3, -0.5, 291, 3, -0.5
*EQUATION
5
1253, 1, 1.0, 243, 1, -0.25, 291, 1, -0.25, 292, 1, -0.25, 244, 1, -0.25
*EQUATION
5
1253, 2, 1.0, 243, 2, -0.25, 291, 2, -0.25, 292, 2, -0.25, 244, 2, -0.25
*EQUATION
5
1253, 3, 1.0, 243, 3, -0.25, 291, 3, -0.25, 292, 3, -0.25, 244, 3, -0.25
*EQUATION
3
1256, 1, 1.0, 244, 1, -0.5, 292, 1, -0.5
*EQUATION
3
1256, 2, 1.0, 244, 2, -0.5, 292, 2, -0.5
*EQUATION
3
1256, 3, 1.0, 244, 3, -0.5, 292, 3, -0.5
*EQUATION
3
1260, 1, 1.0, 291, 1, -0.5, 292, 1, -0.5
*EQUATION
3
1260, 2, 1.0, 291, 2, -0.5, 292, 2, -0.5
*EQUATION
3
1260, 3, 1.0, 291, 3, -0.5, 292, 3, -0.5
*EQUATION
5
1264, 1, 1.0, 244, 1, -0.25, 292, 1, -0.25, 302, 1, -0.25, 254, 1, -0.25
*EQUATION
5
1264, 2, 1.0, 244, 2, -0.25, 292, 2, -0.25, 302, 2, -0.25, 254, 2, -0.25
*EQUATION
5
1264, 3, 1.0, 244, 3, -0.25, 292, 3, -0.25, 302, 3, -0.25, 254, 3, -0.25
*EQUATION
3
1267, 1, 1.0, 254, 1, -0.5, 302, 1, -0.5
*EQUATION
3
1267, 2, 1.0, 254, 2, -0.5, 302, 2, -0.5
*EQUATION
3
1267, 3, 1.0, 254, 3, -0.5, 302, 3, -0.5
*EQUATION
3
1270, 1, 1.0, 292, 1, -0.5, 302, 1, -0.5
*EQUATION
3
1270, 2, 1.0, 292, 2, -0.5, 302, 2, -0.5
*EQUATION
3
1270, 3, 1.0, 292, 3, -0.5, 302, 3, -0.5
*EQUATION
3
1274, 1, 1.0, 291, 1, -0.5, 339, 1, -0.5
*EQUATION
3
1274, 2, 1.0, 291, 2, -0.5, 339, 2, -0.5
*EQUATION
3
1274, 3, 1.0, 291, 3, -0.5, 339, 3, -0.5
*EQUATION
5
1277, 1, 1.0, 291, 1, -0.25, 339, 1, -0.25, 340, 1, -0.25, 292, 1, -0.25
*EQUATION
5
1277, 2, 1.0, 291, 2, -0.25, 339, 2, -0.25, 340, 2, -0.25, 292, 2, -0.25
*EQUATION
5
1277, 3, 1.0, 291, 3, -0.25, 339, 3, -0.25, 340, 3, -0.25, 292, 3, -0.25
*EQUATION
3
1280, 1, 1.0, 292, 1, -0.5, 340, 1, -0.5
*EQUATION
3
1280, 2, 1.0, 292, 2, -0.5, 340, 2, -0.5
*EQUATION
3
1280, 3, 1.0, 292, 3, -0.5, 340, 3, -0.5
*EQUATION
3
1284, 1, 1.0, 339, 1, -0.5, 340, 1, -0.5
*EQUATION
3
1284, 2, 1.0, 339, 2, -0.5, 340, 2, -0.5
*EQUATION
3
1284, 3, 1.0, 339, 3, -0.5, 340, 3, -0.5
*EQUATION
5
1288, 1, 1.0, 292, 1, -0.25, 340, 1, -0.25, 350, 1, -0.25, 302, 1, -0.25
*EQUATION
5
1288, 2, 1.0, 292, 2, -0.25, 340, 2, -0.25, 350, 2, -0.25, 302, 2, -0.25
*EQUATION
5
1288, 3, 1.0, 292, 3, -0.25, 340, 3, -0.25, 350, 3, -0.25, 302, 3, -0.25
*EQUATION
3
1291, 1, 1.0, 302, 1, -0.5, 350, 1, -0.5
*EQUATION
3
1291, 2, 1.0, 302, 2, -0.5, 350, 2, -0.5
*EQUATION
3
1291, 3, 1.0, 302, 3, -0.5, 350, 3, -0.5
*EQUATION
3
1294, 1, 1.0, 340, 1, -0.5, 350, 1, -0.5
*EQUATION
3
1294, 2, 1.0, 340, 2, -0.5, 350, 2, -0.5
*EQUATION
3
1294, 3, 1.0, 340, 3, -0.5, 350, 3, -0.5
*EQUATION
3
1298, 1, 1.0, 339, 1, -0.5, 387, 1, -0.5
*EQUATION
3
1298, 2, 1.0, 339, 2, -0.5, 387, 2, -0.5
*EQUATION
3
1298, 3, 1.0, 339, 3, -0.5, 387, 3, -0.5
*EQUATION
5
1301, 1, 1.0, 339, 1, -0.25, 387, 1, -0.25, 388, 1, -0.25, 340, 1, -0.25
*EQUATION
5
1301, 2, 1.0, 339, 2, -0.25, 387, 2, -0.25, 388, 2, -0.25, 340, 2, -0.25
*EQUATION
5
1301, 3, 1.0, 339, 3, -0.25, 387, 3, -0.25, 388, 3, -0.25, 340, 3, -0.25
*EQUATION
3
1304, 1, 1.0, 340, 1, -0.5, 388, 1, -0.5
*EQUATION
3
1304, 2, 1.0, 340, 2, -0.5, 388, 2, -0.5
*EQUATION
3
1304, 3, 1.0, 340, 3, -0.5, 388, 3, -0.5
*EQUATION
3
1305, 1, 1.0, 385, 1, -0.5, 387, 1, -0.5
*EQUATION
3
1305, 2, 1.0, 385, 2, -0.5, 387, 2, -0.5
*EQUATION
3
1305, 3, 1.0, 385, 3, -0.5, 387, 3, -0.5
*EQUATION
3
1306, 1, 1.0, 385, 1, -0.5, 386, 1, -0.5
*EQUATION
3
1306, 2, 1.0, 385, 2, -0.5, 386, 2, -0.5
*EQUATION
3
1306, 3, 1.0, 385, 3, -0.5, 386, 3, -0.5
*EQUATION
5
1307, 1, 1.0, 385, 1, -0.25, 386, 1, -0.25, 388, 1, -0.25, 387, 1, -0.25
*EQUATION
5
1307, 2, 1.0, 385, 2, -0.25, 386, 2, -0.25, 388, 2, -0.25, 387, 2, -0.25
*EQUATION
5
1307, 3, 1.0, 385, 3, -0.25, 386, 3, -0.25, 388, 3, -0.25, 387, 3, -0.25
*EQUATION
3
1308, 1, 1.0, 387, 1, -0.5, 388, 1, -0.5
*EQUATION
3
1308, 2, 1.0, 387, 2, -0.5, 388, 2, -0.5
*EQUATION
3
1308, 3, 1.0, 387, 3, -0.5, 388, 3, -0.5
*EQUATION
3
1309, 1, 1.0, 386, 1, -0.5, 388, 1, -0.5
*EQUATION
3
1309, 2, 1.0, 386, 2, -0.5, 388, 2, -0.5
*EQUATION
3
1309, 3, 1.0, 386, 3, -0.5, 388, 3, -0.5
*EQUATION
5
1312, 1, 1.0, 340, 1, -0.25, 388, 1, -0.25, 398, 1, -0.25, 350, 1, -0.25
*EQUATION
5
1312, 2, 1.0, 340, 2, -0.25, 388, 2, -0.25, 398, 2, -0.25, 350, 2, -0.25
*EQUATION
5
1312, 3, 1.0, 340, 3, -0.25, 388, 3, -0.25, 398, 3, -0.25, 350, 3, -0.25
*EQUATION
3
1315, 1, 1.0, 350, 1, -0.5, 398, 1, -0.5
*EQUATION
3
1315, 2, 1.0, 350, 2, -0.5, 398, 2, -0.5
*EQUATION
3
1315, 3, 1.0, 350, 3, -0.5, 398, 3, -0.5
*EQUATION
3
1316, 1, 1.0, 386, 1, -0.5, 397, 1, -0.5
*EQUATION
3
1316, 2, 1.0, 386, 2, -0.5, 397, 2, -0.5
*EQUATION
3
1316, 3, 1.0, 386, 3, -0.5, 397, 3, -0.5
*EQUATION
5
1317, 1, 1.0, 386, 1, -0.25, 397, 1, -0.25, 398, 1, -0.25, 388, 1, -0.25
*EQUATION
5
1317, 2, 1.0, 386, 2, -0.25, 397, 2, -0.25, 398, 2, -0.25, 388, 2, -0.25
*EQUATION
5
1317, 3, 1.0, 386, 3, -0.25, 397, 3, -0.25, 398, 3, -0.25, 388, 3, -0.25
*EQUATION
3
1318, 1, 1.0, 388, 1, -0.5, 398, 1, -0.5
*EQUATION
3
1318, 2, 1.0, 388, 2, -0.5, 398, 2, -0.5
*EQUATION
3
1318, 3, 1.0, 388, 3, -0.5, 398, 3, -0.5
*EQUATION
3
1319, 1, 1.0, 397, 1, -0.5, 398, 1, -0.5
*EQUATION
3
1319, 2, 1.0, 397, 2, -0.5, 398, 2, -0.5
*EQUATION
3
1319, 3, 1.0, 397, 3, -0.5, 398, 3, -0.5
*EQUATION
3
1320, 1, 1.0, 844, 1, -0.5, 845, 1, -0.5
*EQUATION
3
1320, 2, 1.0, 844, 2, -0.5, 845, 2, -0.5
*EQUATION
3
1320, 3, 1.0, 844, 3, -0.5, 845, 3, -0.5
*EQUATION
3
1321, 1, 1.0, 827, 1, -0.5, 844, 1, -0.5
*EQUATION
3
1321, 2, 1.0, 827, 2, -0.5, 844, 2, -0.5
*EQUATION
3
1321, 3, 1.0, 827, 3, -0.5, 844, 3, -0.5
*EQUATION
5
1322, 1, 1.0, 844, 1, -0.25, 827, 1, -0.25, 847, 1, -0.25, 845, 1, -0.25
*EQUATION
5
1322, 2, 1.0, 844, 2, -0.25, 827, 2, -0.25, 847, 2, -0.25, 845, 2, -0.25
*EQUATION
5
1322, 3, 1.0, 844, 3, -0.25, 827, 3, -0.25, 847, 3, -0.25, 845, 3, -0.25
*EQUATION
3
1323, 1, 1.0, 845, 1, -0.5, 847, 1, -0.5
*EQUATION
3
1323, 2, 1.0, 845, 2, -0.5, 847, 2, -0.5
*EQUATION
3
1323, 3, 1.0, 845, 3, -0.5, 847, 3, -0.5
*EQUATION
3
1324, 1, 1.0, 827, 1, -0.5, 847, 1, -0.5
*EQUATION
3
1324, 2, 1.0, 827, 2, -0.5, 847, 2, -0.5
*EQUATION
3
1324, 3, 1.0, 827, 3, -0.5, 847, 3, -0.5
*EQUATION
3
1325, 1, 1.0, 844, 1, -0.5, 892, 1, -0.5
*EQUATION
3
1325, 2, 1.0, 844, 2, -0.5, 892, 2, -0.5
*EQUATION
3
1325, 3, 1.0, 844, 3, -0.5, 892, 3, -0.5
*EQUATION
5
1326, 1, 1.0, 844, 1, -0.25, 892, 1, -0.25, 893, 1, -0.25, 845, 1, -0.25
*EQUATION
5
1326, 2, 1.0, 844, 2, -0.25, 892, 2, -0.25, 893, 2, -0.25, 845, 2, -0.25
*EQUATION
5
1326, 3, 1.0, 844, 3, -0.25, 892, 3, -0.25, 893, 3, -0.25, 845, 3, -0.25
*EQUATION
3
1327, 1, 1.0, 845, 1, -0.5, 893, 1, -0.5
*EQUATION
3
1327, 2, 1.0, 845, 2, -0.5, 893, 2, -0.5
*EQUATION
3
1327, 3, 1.0, 845, 3, -0.5, 893, 3, -0.5
*EQUATION
5
1330, 1, 1.0, 845, 1, -0.25, 893, 1, -0.25, 895, 1, -0.25, 847, 1, -0.25
*EQUATION
5
1330, 2, 1.0, 845, 2, -0.25, 893, 2, -0.25, 895, 2, -0.25, 847, 2, -0.25
*EQUATION
5
1330, 3, 1.0, 845, 3, -0.25, 893, 3, -0.25, 895, 3, -0.25, 847, 3, -0.25
*EQUATION
3
1331, 1, 1.0, 827, 1, -0.5, 875, 1, -0.5
*EQUATION
3
1331, 2, 1.0, 827, 2, -0.5, 875, 2, -0.5
*EQUATION
3
1331, 3, 1.0, 827, 3, -0.5, 875, 3, -0.5
*EQUATION
5
1332, 1, 1.0, 827, 1, -0.25, 875, 1, -0.25, 895, 1, -0.25, 847, 1, -0.25
*EQUATION
5
1332, 2, 1.0, 827, 2, -0.25, 875, 2, -0.25, 895, 2, -0.25, 847, 2, -0.25
*EQUATION
5
1332, 3, 1.0, 827, 3, -0.25, 875, 3, -0.25, 895, 3, -0.25, 847, 3, -0.25
*EQUATION
3
1333, 1, 1.0, 847, 1, -0.5, 895, 1, -0.5
*EQUATION
3
1333, 2, 1.0, 847, 2, -0.5, 895, 2, -0.5
*EQUATION
3
1333, 3, 1.0, 847, 3, -0.5, 895, 3, -0.5
*EQUATION
3
1334, 1, 1.0, 892, 1, -0.5, 893, 1, -0.5
*EQUATION
3
1334, 2, 1.0, 892, 2, -0.5, 893, 2, -0.5
*EQUATION
3
1334, 3, 1.0, 892, 3, -0.5, 893, 3, -0.5
*EQUATION
3
1337, 1, 1.0, 893, 1, -0.5, 895, 1, -0.5
*EQUATION
3
1337, 2, 1.0, 893, 2, -0.5, 895, 2, -0.5
*EQUATION
3
1337, 3, 1.0, 893, 3, -0.5, 895, 3, -0.5
*EQUATION
3
1338, 1, 1.0, 875, 1, -0.5, 895, 1, -0.5
*EQUATION
3
1338, 2, 1.0, 875, 2, -0.5, 895, 2, -0.5
*EQUATION
3
1338, 3, 1.0, 875, 3, -0.5, 895, 3, -0.5
*EQUATION
3
1339, 1, 1.0, 834, 1, -0.5, 851, 1, -0.5
*EQUATION
3
1339, 2, 1.0, 834, 2, -0.5, 851, 2, -0.5
*EQUATION
3
1339, 3, 1.0, 834, 3, -0.5, 851, 3, -0.5
*EQUATION
3
1340, 1, 1.0, 834, 1, -0.5, 853, 1, -0.5
*EQUATION
3
1340, 2, 1.0, 834, 2, -0.5, 853, 2, -0.5
*EQUATION
3
1340, 3, 1.0, 834, 3, -0.5, 853, 3, -0.5
*EQUATION
5
1341, 1, 1.0, 834, 1, -0.25, 853, 1, -0.25, 854, 1, -0.25, 851, 1, -0.25
*EQUATION
5
1341, 2, 1.0, 834, 2, -0.25, 853, 2, -0.25, 854, 2, -0.25, 851, 2, -0.25
*EQUATION
5
1341, 3, 1.0, 834, 3, -0.25, 853, 3, -0.25, 854, 3, -0.25, 851, 3, -0.25
*EQUATION
3
1342, 1, 1.0, 851, 1, -0.5, 854, 1, -0.5
*EQUATION
3
1342, 2, 1.0, 851, 2, -0.5, 854, 2, -0.5
*EQUATION
3
1342, 3, 1.0, 851, 3, -0.5, 854, 3, -0.5
*EQUATION
3
1343, 1, 1.0, 853, 1, -0.5, 854, 1, -0.5
*EQUATION
3
1343, 2, 1.0, 853, 2, -0.5, 854, 2, -0.5
*EQUATION
3
1343, 3, 1.0, 853, 3, -0.5, 854, 3, -0.5
*EQUATION
3
1344, 1, 1.0, 834, 1, -0.5, 882, 1, -0.5
*EQUATION
3
1344, 2, 1.0, 834, 2, -0.5, 882, 2, -0.5
*EQUATION
3
1344, 3, 1.0, 834, 3, -0.5, 882, 3, -0.5
*EQUATION
5
1345, 1, 1.0, 834, 1, -0.25, 882, 1, -0.25, 899, 1, -0.25, 851, 1, -0.25
*EQUATION
5
1345, 2, 1.0, 834, 2, -0.25, 882, 2, -0.25, 899, 2, -0.25, 851, 2, -0.25
*EQUATION
5
1345, 3, 1.0, 834, 3, -0.25, 882, 3, -0.25, 899, 3, -0.25, 851, 3, -0.25
*EQUATION
3
1346, 1, 1.0, 851, 1, -0.5, 899, 1, -0.5
*EQUATION
3
1346, 2, 1.0, 851, 2, -0.5, 899, 2, -0.5
*EQUATION
3
1346, 3, 1.0, 851, 3, -0.5, 899, 3, -0.5
*EQUATION
5
1349, 1, 1.0, 851, 1, -0.25, 899, 1, -0.25, 902, 1, -0.25, 854, 1, -0.25
*EQUATION
5
1349, 2, 1.0, 851, 2, -0.25, 899, 2, -0.25, 902, 2, -0.25, 854, 2, -0.25
*EQUATION
5
1349, 3, 1.0, 851, 3, -0.25, 899, 3, -0.25, 902, 3, -0.25, 854, 3, -0.25
*EQUATION
3
1350, 1, 1.0, 853, 1, -0.5, 901, 1, -0.5
*EQUATION
3
1350, 2, 1.0, 853, 2, -0.5, 901, 2, -0.5
*EQUATION
3
1350, 3, 1.0, 853, 3, -0.5, 901, 3, -0.5
*EQUATION
5
1351, 1, 1.0, 853, 1, -0.25, 901, 1, -0.25, 902, 1, -0.25, 854, 1, -0.25
*EQUATION
5
1351, 2, 1.0, 853, 2, -0.25, 901, 2, -0.25, 902, 2, -0.25, 854, 2, -0.25
*EQUATION
5
1351, 3, 1.0, 853, 3, -0.25, 901, 3, -0.25, 902, 3, -0.25, 854, 3, -0.25
*EQUATION
3
1352, 1, 1.0, 854, 1, -0.5, 902, 1, -0.5
*EQUATION
3
1352, 2, 1.0, 854, 2, -0.5, 902, 2, -0.5
*EQUATION
3
1352, 3, 1.0, 854, 3, -0.5, 902, 3, -0.5
*EQUATION
3
1353, 1, 1.0, 882, 1, -0.5, 899, 1, -0.5
*EQUATION
3
1353, 2, 1.0, 882, 2, -0.5, 899, 2, -0.5
*EQUATION
3
1353, 3, 1.0, 882, 3, -0.5, 899, 3, -0.5
*EQUATION
3
1356, 1, 1.0, 899, 1, -0.5, 902, 1, -0.5
*EQUATION
3
1356, 2, 1.0, 899, 2, -0.5, 902, 2, -0.5
*EQUATION
3
1356, 3, 1.0, 899, 3, -0.5, 902, 3, -0.5
*EQUATION
3
1357, 1, 1.0, 901, 1, -0.5, 902, 1, -0.5
*EQUATION
3
1357, 2, 1.0, 901, 2, -0.5, 902, 2, -0.5
*EQUATION
3
1357, 3, 1.0, 901, 3, -0.5, 902, 3, -0.5
*BOUNDARY
CLAMP, 1, 3, 0.0
*STEP
*STATIC
*CLOAD
887, 3, -454.545454545
888, 3, -454.545454545
891, 3, -454.545454545
894, 3, -454.545454545
896, 3, -454.545454545
898, 3, -454.545454545
900, 3, -454.545454545
903, 3, -454.545454545
906, 3, -454.545454545
909, 3, -454.545454545
912, 3, -454.545454545
*NODE FILE
U
*EL FILE
S, ENER
*NODE PRINT, NSET=TIP_TOP
U
*NODE PRINT, NSET=CLAMP
RF
*EL PRINT, ELSET=EALL
ELSE
*ENERGY PRINT
*END STEP
