*HEADING
T01 S-LIN hanging 8-split zz cycle 2
units: mm, N, s, MPa. Material is illustrative steel, not a coupon card.
E=210000.0 nu=0.3. load -5000.0 N on TIP_TOP.
*NODE, NSET=NALL
1, 0, -10, 0
2, 111.111111111, -10, 6.66666666667
3, 111.111111111, 0, 6.66666666667
4, 0, 0, 0
5, 0, -10, 40
6, 111.111111111, -10, 45.3333333333
7, 111.111111111, 0, 45.3333333333
8, 0, 0, 40
9, 0, -10, 80
10, 111.111111111, -10, 84
11, 111.111111111, 0, 84
12, 0, 0, 80
13, 0, -10, 120
14, 111.111111111, -10, 122.666666667
15, 111.111111111, 0, 122.666666667
16, 0, 0, 120
17, 0, -10, 160
18, 111.111111111, -10, 161.333333333
19, 111.111111111, 0, 161.333333333
20, 0, 0, 160
** ... 1429 like lines cut
*ELEMENT, TYPE=C3D8, ELSET=EALL
1, 1, 1119, 1122, 1115, 1114, 1120, 1123, 1116
2, 1114, 1120, 1123, 1116, 5, 1121, 1124, 1117
3, 1115, 1122, 1125, 4, 1116, 1123, 1126, 1118
4, 1116, 1123, 1126, 1118, 1117, 1124, 1127, 8
5, 1119, 2, 1129, 1122, 1120, 1128, 1130, 1123
6, 1120, 1128, 1130, 1123, 1121, 6, 1131, 1124
7, 1122, 1129, 3, 1125, 1123, 1130, 1132, 1126
8, 1123, 1130, 1132, 1126, 1124, 1131, 7, 1127
9, 5, 6, 7, 8, 9, 10, 11, 12
10, 9, 10, 11, 12, 13, 14, 15, 16
11, 13, 14, 15, 16, 17, 18, 19, 20
12, 17, 18, 19, 20, 21, 22, 23, 24
13, 4, 1125, 1137, 1133, 1118, 1126, 1138, 1134
14, 1118, 1126, 1138, 1134, 8, 1127, 1139, 1135
15, 1133, 1137, 1140, 26, 1134, 1138, 1141, 1136
16, 1134, 1138, 1141, 1136, 1135, 1139, 1142, 28
17, 1125, 3, 1143, 1137, 1126, 1132, 1144, 1138
18, 1126, 1132, 1144, 1138, 1127, 7, 1145, 1139
19, 1137, 1143, 25, 1140, 1138, 1144, 1146, 1141
20, 1138, 1144, 1146, 1141, 1139, 1145, 27, 1142
** ... 842 like lines cut
*NSET, NSET=CLAMP
1, 4, 5, 8, 9, 12, 13, 16, 17, 20, 21, 24, 26, 28, 30, 32
34, 36, 37, 40, 41, 44, 45, 48, 50, 52, 54, 56, 58, 60, 62, 64
66, 68, 70, 72, 74, 76, 78, 80, 82, 84, 86, 88, 90, 92, 94, 96
1114, 1115, 1116, 1117, 1118, 1133, 1134, 1135, 1136
*NSET, NSET=TIP_TOP
887, 888, 891, 894, 896, 898, 900, 903, 906, 909, 912
*MATERIAL, NAME=STEEL
*ELASTIC
210000, 0.3
*SOLID SECTION, ELSET=EALL, MATERIAL=STEEL
*EQUATION
3
916, 1, 1.0, 483, 1, -0.5, 484, 1, -0.5
*EQUATION
3
916, 2, 1.0, 483, 2, -0.5, 484, 2, -0.5
*EQUATION
3
916, 3, 1.0, 483, 3, -0.5, 484, 3, -0.5
*EQUATION
3
920, 1, 1.0, 483, 1, -0.5, 531, 1, -0.5
*EQUATION
3
920, 2, 1.0, 483, 2, -0.5, 531, 2, -0.5
*EQUATION
3
920, 3, 1.0, 483, 3, -0.5, 531, 3, -0.5
*EQUATION
5
923, 1, 1.0, 483, 1, -0.25, 531, 1, -0.25, 532, 1, -0.25, 484, 1, -0.25
*EQUATION
5
923, 2, 1.0, 483, 2, -0.25, 531, 2, -0.25, 532, 2, -0.25, 484, 2, -0.25
*EQUATION
5
923, 3, 1.0, 483, 3, -0.25, 531, 3, -0.25, 532, 3, -0.25, 484, 3, -0.25
*EQUATION
3
926, 1, 1.0, 484, 1, -0.5, 532, 1, -0.5
*EQUATION
3
926, 2, 1.0, 484, 2, -0.5, 532, 2, -0.5
*EQUATION
3
926, 3, 1.0, 484, 3, -0.5, 532, 3, -0.5
*EQUATION
3
930, 1, 1.0, 531, 1, -0.5, 532, 1, -0.5
*EQUATION
3
930, 2, 1.0, 531, 2, -0.5, 532, 2, -0.5
*EQUATION
3
930, 3, 1.0, 531, 3, -0.5, 532, 3, -0.5
*EQUATION
3
934, 1, 1.0, 484, 1, -0.5, 494, 1, -0.5
*EQUATION
3
934, 2, 1.0, 484, 2, -0.5, 494, 2, -0.5
*EQUATION
3
934, 3, 1.0, 484, 3, -0.5, 494, 3, -0.5
*EQUATION
5
938, 1, 1.0, 484, 1, -0.25, 532, 1, -0.25, 542, 1, -0.25, 494, 1, -0.25
*EQUATION
5
938, 2, 1.0, 484, 2, -0.25, 532, 2, -0.25, 542, 2, -0.25, 494, 2, -0.25
*EQUATION
5
938, 3, 1.0, 484, 3, -0.25, 532, 3, -0.25, 542, 3, -0.25, 494, 3, -0.25
*EQUATION
3
941, 1, 1.0, 494, 1, -0.5, 542, 1, -0.5
*EQUATION
3
941, 2, 1.0, 494, 2, -0.5, 542, 2, -0.5
*EQUATION
3
941, 3, 1.0, 494, 3, -0.5, 542, 3, -0.5
*EQUATION
3
944, 1, 1.0, 532, 1, -0.5, 542, 1, -0.5
*EQUATION
3
944, 2, 1.0, 532, 2, -0.5, 542, 2, -0.5
*EQUATION
3
944, 3, 1.0, 532, 3, -0.5, 542, 3, -0.5
*EQUATION
3
1121, 1, 1.0, 5, 1, -0.5, 6, 1, -0.5
*EQUATION
3
1121, 2, 1.0, 5, 2, -0.5, 6, 2, -0.5
*EQUATION
3
1121, 3, 1.0, 5, 3, -0.5, 6, 3, -0.5
*EQUATION
5
1124, 1, 1.0, 5, 1, -0.25, 6, 1, -0.25, 7, 1, -0.25, 8, 1, -0.25
*EQUATION
5
1124, 2, 1.0, 5, 2, -0.25, 6, 2, -0.25, 7, 2, -0.25, 8, 2, -0.25
*EQUATION
5
1124, 3, 1.0, 5, 3, -0.25, 6, 3, -0.25, 7, 3, -0.25, 8, 3, -0.25
*EQUATION
3
1127, 1, 1.0, 7, 1, -0.5, 8, 1, -0.5
*EQUATION
3
1127, 2, 1.0, 7, 2, -0.5, 8, 2, -0.5
*EQUATION
3
1127, 3, 1.0, 7, 3, -0.5, 8, 3, -0.5
*EQUATION
3
1131, 1, 1.0, 6, 1, -0.5, 7, 1, -0.5
*EQUATION
3
1131, 2, 1.0, 6, 2, -0.5, 7, 2, -0.5
*EQUATION
3
1131, 3, 1.0, 6, 3, -0.5, 7, 3, -0.5
*EQUATION
5
1139, 1, 1.0, 8, 1, -0.25, 7, 1, -0.25, 27, 1, -0.25, 28, 1, -0.25
*EQUATION
5
1139, 2, 1.0, 8, 2, -0.25, 7, 2, -0.25, 27, 2, -0.25, 28, 2, -0.25
*EQUATION
5
1139, 3, 1.0, 8, 3, -0.25, 7, 3, -0.25, 27, 3, -0.25, 28, 3, -0.25
*EQUATION
3
1142, 1, 1.0, 27, 1, -0.5, 28, 1, -0.5
*EQUATION
3
1142, 2, 1.0, 27, 2, -0.5, 28, 2, -0.5
*EQUATION
3
1142, 3, 1.0, 27, 3, -0.5, 28, 3, -0.5
*EQUATION
3
1145, 1, 1.0, 7, 1, -0.5, 27, 1, -0.5
*EQUATION
3
1145, 2, 1.0, 7, 2, -0.5, 27, 2, -0.5
*EQUATION
3
1145, 3, 1.0, 7, 3, -0.5, 27, 3, -0.5
*EQUATION
3
1149, 1, 1.0, 6, 1, -0.5, 99, 1, -0.5
*EQUATION
3
1149, 2, 1.0, 6, 2, -0.5, 99, 2, -0.5
*EQUATION
3
1149, 3, 1.0, 6, 3, -0.5, 99, 3, -0.5
*EQUATION
5
1152, 1, 1.0, 6, 1, -0.25, 99, 1, -0.25, 100, 1, -0.25, 7, 1, -0.25
*EQUATION
5
1152, 2, 1.0, 6, 2, -0.25, 99, 2, -0.25, 100, 2, -0.25, 7, 2, -0.25
*EQUATION
5
1152, 3, 1.0, 6, 3, -0.25, 99, 3, -0.25, 100, 3, -0.25, 7, 3, -0.25
*EQUATION
3
1155, 1, 1.0, 7, 1, -0.5, 100, 1, -0.5
*EQUATION
3
1155, 2, 1.0, 7, 2, -0.5, 100, 2, -0.5
*EQUATION
3
1155, 3, 1.0, 7, 3, -0.5, 100, 3, -0.5
*EQUATION
3
1156, 1, 1.0, 97, 1, -0.5, 99, 1, -0.5
*EQUATION
3
1156, 2, 1.0, 97, 2, -0.5, 99, 2, -0.5
*EQUATION
3
1156, 3, 1.0, 97, 3, -0.5, 99, 3, -0.5
*EQUATION
3
1157, 1, 1.0, 97, 1, -0.5, 98, 1, -0.5
*EQUATION
3
1157, 2, 1.0, 97, 2, -0.5, 98, 2, -0.5
*EQUATION
3
1157, 3, 1.0, 97, 3, -0.5, 98, 3, -0.5
*EQUATION
5
1158, 1, 1.0, 97, 1, -0.25, 98, 1, -0.25, 100, 1, -0.25, 99, 1, -0.25
*EQUATION
5
1158, 2, 1.0, 97, 2, -0.25, 98, 2, -0.25, 100, 2, -0.25, 99, 2, -0.25
*EQUATION
5
1158, 3, 1.0, 97, 3, -0.25, 98, 3, -0.25, 100, 3, -0.25, 99, 3, -0.25
*EQUATION
3
1159, 1, 1.0, 99, 1, -0.5, 100, 1, -0.5
*EQUATION
3
1159, 2, 1.0, 99, 2, -0.5, 100, 2, -0.5
*EQUATION
3
1159, 3, 1.0, 99, 3, -0.5, 100, 3, -0.5
*EQUATION
3
1160, 1, 1.0, 98, 1, -0.5, 100, 1, -0.5
*EQUATION
3
1160, 2, 1.0, 98, 2, -0.5, 100, 2, -0.5
*EQUATION
3
1160, 3, 1.0, 98, 3, -0.5, 100, 3, -0.5
*EQUATION
5
1163, 1, 1.0, 7, 1, -0.25, 100, 1, -0.25, 110, 1, -0.25, 27, 1, -0.25
*EQUATION
5
1163, 2, 1.0, 7, 2, -0.25, 100, 2, -0.25, 110, 2, -0.25, 27, 2, -0.25
*EQUATION
5
1163, 3, 1.0, 7, 3, -0.25, 100, 3, -0.25, 110, 3, -0.25, 27, 3, -0.25
*EQUATION
3
1166, 1, 1.0, 27, 1, -0.5, 110, 1, -0.5
*EQUATION
3
1166, 2, 1.0, 27, 2, -0.5, 110, 2, -0.5
*EQUATION
3
1166, 3, 1.0, 27, 3, -0.5, 110, 3, -0.5
*EQUATION
3
1167, 1, 1.0, 98, 1, -0.5, 109, 1, -0.5
*EQUATION
3
1167, 2, 1.0, 98, 2, -0.5, 109, 2, -0.5
*EQUATION
3
1167, 3, 1.0, 98, 3, -0.5, 109, 3, -0.5
*EQUATION
5
1168, 1, 1.0, 98, 1, -0.25, 109, 1, -0.25, 110, 1, -0.25, 100, 1, -0.25
*EQUATION
5
1168, 2, 1.0, 98, 2, -0.25, 109, 2, -0.25, 110, 2, -0.25, 100, 2, -0.25
*EQUATION
5
1168, 3, 1.0, 98, 3, -0.25, 109, 3, -0.25, 110, 3, -0.25, 100, 3, -0.25
*EQUATION
3
1169, 1, 1.0, 100, 1, -0.5, 110, 1, -0.5
*EQUATION
3
1169, 2, 1.0, 100, 2, -0.5, 110, 2, -0.5
*EQUATION
3
1169, 3, 1.0, 100, 3, -0.5, 110, 3, -0.5
*EQUATION
3
1170, 1, 1.0, 109, 1, -0.5, 110, 1, -0.5
*EQUATION
3
1170, 2, 1.0, 109, 2, -0.5, 110, 2, -0.5
*EQUATION
3
1170, 3, 1.0, 109, 3, -0.5, 110, 3, -0.5
*EQUATION
3
1171, 1, 1.0, 385, 1, -0.5, 387, 1, -0.5
*EQUATION
3
1171, 2, 1.0, 385, 2, -0.5, 387, 2, -0.5
*EQUATION
3
1171, 3, 1.0, 385, 3, -0.5, 387, 3, -0.5
*EQUATION
3
1172, 1, 1.0, 385, 1, -0.5, 386, 1, -0.5
*EQUATION
3
1172, 2, 1.0, 385, 2, -0.5, 386, 2, -0.5
*EQUATION
3
1172, 3, 1.0, 385, 3, -0.5, 386, 3, -0.5
*EQUATION
5
1173, 1, 1.0, 385, 1, -0.25, 386, 1, -0.25, 388, 1, -0.25, 387, 1, -0.25
*EQUATION
5
1173, 2, 1.0, 385, 2, -0.25, 386, 2, -0.25, 388, 2, -0.25, 387, 2, -0.25
*EQUATION
5
1173, 3, 1.0, 385, 3, -0.25, 386, 3, -0.25, 388, 3, -0.25, 387, 3, -0.25
*EQUATION
3
1174, 1, 1.0, 387, 1, -0.5, 388, 1, -0.5
*EQUATION
3
1174, 2, 1.0, 387, 2, -0.5, 388, 2, -0.5
*EQUATION
3
1174, 3, 1.0, 387, 3, -0.5, 388, 3, -0.5
*EQUATION
3
1175, 1, 1.0, 386, 1, -0.5, 388, 1, -0.5
*EQUATION
3
1175, 2, 1.0, 386, 2, -0.5, 388, 2, -0.5
*EQUATION
3
1175, 3, 1.0, 386, 3, -0.5, 388, 3, -0.5
*EQUATION
3
1178, 1, 1.0, 387, 1, -0.5, 435, 1, -0.5
*EQUATION
3
1178, 2, 1.0, 387, 2, -0.5, 435, 2, -0.5
*EQUATION
3
1178, 3, 1.0, 387, 3, -0.5, 435, 3, -0.5
*EQUATION
5
1181, 1, 1.0, 387, 1, -0.25, 435, 1, -0.25, 436, 1, -0.25, 388, 1, -0.25
*EQUATION
5
1181, 2, 1.0, 387, 2, -0.25, 435, 2, -0.25, 436, 2, -0.25, 388, 2, -0.25
*EQUATION
5
1181, 3, 1.0, 387, 3, -0.25, 435, 3, -0.25, 436, 3, -0.25, 388, 3, -0.25
*EQUATION
3
1184, 1, 1.0, 388, 1, -0.5, 436, 1, -0.5
*EQUATION
3
1184, 2, 1.0, 388, 2, -0.5, 436, 2, -0.5
*EQUATION
3
1184, 3, 1.0, 388, 3, -0.5, 436, 3, -0.5
*EQUATION
3
1188, 1, 1.0, 435, 1, -0.5, 436, 1, -0.5
*EQUATION
3
1188, 2, 1.0, 435, 2, -0.5, 436, 2, -0.5
*EQUATION
3
1188, 3, 1.0, 435, 3, -0.5, 436, 3, -0.5
*EQUATION
3
1190, 1, 1.0, 386, 1, -0.5, 397, 1, -0.5
*EQUATION
3
1190, 2, 1.0, 386, 2, -0.5, 397, 2, -0.5
*EQUATION
3
1190, 3, 1.0, 386, 3, -0.5, 397, 3, -0.5
*EQUATION
5
1191, 1, 1.0, 386, 1, -0.25, 397, 1, -0.25, 398, 1, -0.25, 388, 1, -0.25
*EQUATION
5
1191, 2, 1.0, 386, 2, -0.25, 397, 2, -0.25, 398, 2, -0.25, 388, 2, -0.25
*EQUATION
5
1191, 3, 1.0, 386, 3, -0.25, 397, 3, -0.25, 398, 3, -0.25, 388, 3, -0.25
*EQUATION
3
1192, 1, 1.0, 388, 1, -0.5, 398, 1, -0.5
*EQUATION
3
1192, 2, 1.0, 388, 2, -0.5, 398, 2, -0.5
*EQUATION
3
1192, 3, 1.0, 388, 3, -0.5, 398, 3, -0.5
*EQUATION
3
1193, 1, 1.0, 397, 1, -0.5, 398, 1, -0.5
*EQUATION
3
1193, 2, 1.0, 397, 2, -0.5, 398, 2, -0.5
*EQUATION
3
1193, 3, 1.0, 397, 3, -0.5, 398, 3, -0.5
*EQUATION
5
1196, 1, 1.0, 388, 1, -0.25, 436, 1, -0.25, 446, 1, -0.25, 398, 1, -0.25
*EQUATION
5
1196, 2, 1.0, 388, 2, -0.25, 436, 2, -0.25, 446, 2, -0.25, 398, 2, -0.25
*EQUATION
5
1196, 3, 1.0, 388, 3, -0.25, 436, 3, -0.25, 446, 3, -0.25, 398, 3, -0.25
*EQUATION
3
1199, 1, 1.0, 398, 1, -0.5, 446, 1, -0.5
*EQUATION
3
1199, 2, 1.0, 398, 2, -0.5, 446, 2, -0.5
*EQUATION
3
1199, 3, 1.0, 398, 3, -0.5, 446, 3, -0.5
*EQUATION
3
1202, 1, 1.0, 436, 1, -0.5, 446, 1, -0.5
*EQUATION
3
1202, 2, 1.0, 436, 2, -0.5, 446, 2, -0.5
*EQUATION
3
1202, 3, 1.0, 436, 3, -0.5, 446, 3, -0.5
*EQUATION
3
1206, 1, 1.0, 435, 1, -0.5, 483, 1, -0.5
*EQUATION
3
1206, 2, 1.0, 435, 2, -0.5, 483, 2, -0.5
*EQUATION
3
1206, 3, 1.0, 435, 3, -0.5, 483, 3, -0.5
*EQUATION
5
1209, 1, 1.0, 435, 1, -0.25, 483, 1, -0.25, 484, 1, -0.25, 436, 1, -0.25
*EQUATION
5
1209, 2, 1.0, 435, 2, -0.25, 483, 2, -0.25, 484, 2, -0.25, 436, 2, -0.25
*EQUATION
5
1209, 3, 1.0, 435, 3, -0.25, 483, 3, -0.25, 484, 3, -0.25, 436, 3, -0.25
*EQUATION
3
1212, 1, 1.0, 436, 1, -0.5, 484, 1, -0.5
*EQUATION
3
1212, 2, 1.0, 436, 2, -0.5, 484, 2, -0.5
*EQUATION
3
1212, 3, 1.0, 436, 3, -0.5, 484, 3, -0.5
*EQUATION
5
1215, 1, 1.0, 436, 1, -0.25, 484, 1, -0.25, 494, 1, -0.25, 446, 1, -0.25
*EQUATION
5
1215, 2, 1.0, 436, 2, -0.25, 484, 2, -0.25, 494, 2, -0.25, 446, 2, -0.25
*EQUATION
5
1215, 3, 1.0, 436, 3, -0.25, 484, 3, -0.25, 494, 3, -0.25, 446, 3, -0.25
*EQUATION
3
1218, 1, 1.0, 446, 1, -0.5, 494, 1, -0.5
*EQUATION
3
1218, 2, 1.0, 446, 2, -0.5, 494, 2, -0.5
*EQUATION
3
1218, 3, 1.0, 446, 3, -0.5, 494, 3, -0.5
*EQUATION
3
1219, 1, 1.0, 531, 1, -0.5, 533, 1, -0.5
*EQUATION
3
1219, 2, 1.0, 531, 2, -0.5, 533, 2, -0.5
*EQUATION
3
1219, 3, 1.0, 531, 3, -0.5, 533, 3, -0.5
*EQUATION
5
1220, 1, 1.0, 531, 1, -0.25, 532, 1, -0.25, 534, 1, -0.25, 533, 1, -0.25
*EQUATION
5
1220, 2, 1.0, 531, 2, -0.25, 532, 2, -0.25, 534, 2, -0.25, 533, 2, -0.25
*EQUATION
5
1220, 3, 1.0, 531, 3, -0.25, 532, 3, -0.25, 534, 3, -0.25, 533, 3, -0.25
*EQUATION
3
1221, 1, 1.0, 533, 1, -0.5, 534, 1, -0.5
*EQUATION
3
1221, 2, 1.0, 533, 2, -0.5, 534, 2, -0.5
*EQUATION
3
1221, 3, 1.0, 533, 3, -0.5, 534, 3, -0.5
*EQUATION
3
1222, 1, 1.0, 532, 1, -0.5, 534, 1, -0.5
*EQUATION
3
1222, 2, 1.0, 532, 2, -0.5, 534, 2, -0.5
*EQUATION
3
1222, 3, 1.0, 532, 3, -0.5, 534, 3, -0.5
*EQUATION
3
1224, 1, 1.0, 533, 1, -0.5, 581, 1, -0.5
*EQUATION
3
1224, 2, 1.0, 533, 2, -0.5, 581, 2, -0.5
*EQUATION
3
1224, 3, 1.0, 533, 3, -0.5, 581, 3, -0.5
*EQUATION
5
1226, 1, 1.0, 533, 1, -0.25, 581, 1, -0.25, 582, 1, -0.25, 534, 1, -0.25
*EQUATION
5
1226, 2, 1.0, 533, 2, -0.25, 581, 2, -0.25, 582, 2, -0.25, 534, 2, -0.25
*EQUATION
5
1226, 3, 1.0, 533, 3, -0.25, 581, 3, -0.25, 582, 3, -0.25, 534, 3, -0.25
*EQUATION
3
1228, 1, 1.0, 534, 1, -0.5, 582, 1, -0.5
*EQUATION
3
1228, 2, 1.0, 534, 2, -0.5, 582, 2, -0.5
*EQUATION
3
1228, 3, 1.0, 534, 3, -0.5, 582, 3, -0.5
*EQUATION
3
1231, 1, 1.0, 581, 1, -0.5, 582, 1, -0.5
*EQUATION
3
1231, 2, 1.0, 581, 2, -0.5, 582, 2, -0.5
*EQUATION
3
1231, 3, 1.0, 581, 3, -0.5, 582, 3, -0.5
*EQUATION
5
1233, 1, 1.0, 532, 1, -0.25, 542, 1, -0.25, 543, 1, -0.25, 534, 1, -0.25
*EQUATION
5
1233, 2, 1.0, 532, 2, -0.25, 542, 2, -0.25, 543, 2, -0.25, 534, 2, -0.25
*EQUATION
5
1233, 3, 1.0, 532, 3, -0.25, 542, 3, -0.25, 543, 3, -0.25, 534, 3, -0.25
*EQUATION
3
1234, 1, 1.0, 534, 1, -0.5, 543, 1, -0.5
*EQUATION
3
1234, 2, 1.0, 534, 2, -0.5, 543, 2, -0.5
*EQUATION
3
1234, 3, 1.0, 534, 3, -0.5, 543, 3, -0.5
*EQUATION
3
1235, 1, 1.0, 542, 1, -0.5, 543, 1, -0.5
*EQUATION
3
1235, 2, 1.0, 542, 2, -0.5, 543, 2, -0.5
*EQUATION
3
1235, 3, 1.0, 542, 3, -0.5, 543, 3, -0.5
*EQUATION
5
1237, 1, 1.0, 534, 1, -0.25, 582, 1, -0.25, 591, 1, -0.25, 543, 1, -0.25
*EQUATION
5
1237, 2, 1.0, 534, 2, -0.25, 582, 2, -0.25, 591, 2, -0.25, 543, 2, -0.25
*EQUATION
5
1237, 3, 1.0, 534, 3, -0.25, 582, 3, -0.25, 591, 3, -0.25, 543, 3, -0.25
*EQUATION
3
1239, 1, 1.0, 543, 1, -0.5, 591, 1, -0.5
*EQUATION
3
1239, 2, 1.0, 543, 2, -0.5, 591, 2, -0.5
*EQUATION
3
1239, 3, 1.0, 543, 3, -0.5, 591, 3, -0.5
*EQUATION
3
1241, 1, 1.0, 582, 1, -0.5, 591, 1, -0.5
*EQUATION
3
1241, 2, 1.0, 582, 2, -0.5, 591, 2, -0.5
*EQUATION
3
1241, 3, 1.0, 582, 3, -0.5, 591, 3, -0.5
*EQUATION
3
1244, 1, 1.0, 581, 1, -0.5, 629, 1, -0.5
*EQUATION
3
1244, 2, 1.0, 581, 2, -0.5, 629, 2, -0.5
*EQUATION
3
1244, 3, 1.0, 581, 3, -0.5, 629, 3, -0.5
*EQUATION
5
1246, 1, 1.0, 581, 1, -0.25, 629, 1, -0.25, 630, 1, -0.25, 582, 1, -0.25
*EQUATION
5
1246, 2, 1.0, 581, 2, -0.25, 629, 2, -0.25, 630, 2, -0.25, 582, 2, -0.25
*EQUATION
5
1246, 3, 1.0, 581, 3, -0.25, 629, 3, -0.25, 630, 3, -0.25, 582, 3, -0.25
*EQUATION
3
1248, 1, 1.0, 582, 1, -0.5, 630, 1, -0.5
*EQUATION
3
1248, 2, 1.0, 582, 2, -0.5, 630, 2, -0.5
*EQUATION
3
1248, 3, 1.0, 582, 3, -0.5, 630, 3, -0.5
*EQUATION
3
1251, 1, 1.0, 629, 1, -0.5, 630, 1, -0.5
*EQUATION
3
1251, 2, 1.0, 629, 2, -0.5, 630, 2, -0.5
*EQUATION
3
1251, 3, 1.0, 629, 3, -0.5, 630, 3, -0.5
*EQUATION
5
1254, 1, 1.0, 582, 1, -0.25, 630, 1, -0.25, 639, 1, -0.25, 591, 1, -0.25
*EQUATION
5
1254, 2, 1.0, 582, 2, -0.25, 630, 2, -0.25, 639, 2, -0.25, 591, 2, -0.25
*EQUATION
5
1254, 3, 1.0, 582, 3, -0.25, 630, 3, -0.25, 639, 3, -0.25, 591, 3, -0.25
*EQUATION
3
1256, 1, 1.0, 591, 1, -0.5, 639, 1, -0.5
*EQUATION
3
1256, 2, 1.0, 591, 2, -0.5, 639, 2, -0.5
*EQUATION
3
1256, 3, 1.0, 591, 3, -0.5, 639, 3, -0.5
*EQUATION
3
1258, 1, 1.0, 630, 1, -0.5, 639, 1, -0.5
*EQUATION
3
1258, 2, 1.0, 630, 2, -0.5, 639, 2, -0.5
*EQUATION
3
1258, 3, 1.0, 630, 3, -0.5, 639, 3, -0.5
*EQUATION
3
1261, 1, 1.0, 629, 1, -0.5, 677, 1, -0.5
*EQUATION
3
1261, 2, 1.0, 629, 2, -0.5, 677, 2, -0.5
*EQUATION
3
1261, 3, 1.0, 629, 3, -0.5, 677, 3, -0.5
*EQUATION
5
1263, 1, 1.0, 629, 1, -0.25, 677, 1, -0.25, 678, 1, -0.25, 630, 1, -0.25
*EQUATION
5
1263, 2, 1.0, 629, 2, -0.25, 677, 2, -0.25, 678, 2, -0.25, 630, 2, -0.25
*EQUATION
5
1263, 3, 1.0, 629, 3, -0.25, 677, 3, -0.25, 678, 3, -0.25, 630, 3, -0.25
*EQUATION
3
1265, 1, 1.0, 630, 1, -0.5, 678, 1, -0.5
*EQUATION
3
1265, 2, 1.0, 630, 2, -0.5, 678, 2, -0.5
*EQUATION
3
1265, 3, 1.0, 630, 3, -0.5, 678, 3, -0.5
*EQUATION
3
1268, 1, 1.0, 677, 1, -0.5, 678, 1, -0.5
*EQUATION
3
1268, 2, 1.0, 677, 2, -0.5, 678, 2, -0.5
*EQUATION
3
1268, 3, 1.0, 677, 3, -0.5, 678, 3, -0.5
*EQUATION
5
1271, 1, 1.0, 630, 1, -0.25, 678, 1, -0.25, 687, 1, -0.25, 639, 1, -0.25
*EQUATION
5
1271, 2, 1.0, 630, 2, -0.25, 678, 2, -0.25, 687, 2, -0.25, 639, 2, -0.25
*EQUATION
5
1271, 3, 1.0, 630, 3, -0.25, 678, 3, -0.25, 687, 3, -0.25, 639, 3, -0.25
*EQUATION
3
1273, 1, 1.0, 639, 1, -0.5, 687, 1, -0.5
*EQUATION
3
1273, 2, 1.0, 639, 2, -0.5, 687, 2, -0.5
*EQUATION
3
1273, 3, 1.0, 639, 3, -0.5, 687, 3, -0.5
*EQUATION
3
1275, 1, 1.0, 678, 1, -0.5, 687, 1, -0.5
*EQUATION
3
1275, 2, 1.0, 678, 2, -0.5, 687, 2, -0.5
*EQUATION
3
1275, 3, 1.0, 678, 3, -0.5, 687, 3, -0.5
*EQUATION
3
1278, 1, 1.0, 677, 1, -0.5, 725, 1, -0.5
*EQUATION
3
1278, 2, 1.0, 677, 2, -0.5, 725, 2, -0.5
*EQUATION
3
1278, 3, 1.0, 677, 3, -0.5, 725, 3, -0.5
*EQUATION
5
1280, 1, 1.0, 677, 1, -0.25, 725, 1, -0.25, 726, 1, -0.25, 678, 1, -0.25
*EQUATION
5
1280, 2, 1.0, 677, 2, -0.25, 725, 2, -0.25, 726, 2, -0.25, 678, 2, -0.25
*EQUATION
5
1280, 3, 1.0, 677, 3, -0.25, 725, 3, -0.25, 726, 3, -0.25, 678, 3, -0.25
*EQUATION
3
1282, 1, 1.0, 678, 1, -0.5, 726, 1, -0.5
*EQUATION
3
1282, 2, 1.0, 678, 2, -0.5, 726, 2, -0.5
*EQUATION
3
1282, 3, 1.0, 678, 3, -0.5, 726, 3, -0.5
*EQUATION
3
1285, 1, 1.0, 725, 1, -0.5, 726, 1, -0.5
*EQUATION
3
1285, 2, 1.0, 725, 2, -0.5, 726, 2, -0.5
*EQUATION
3
1285, 3, 1.0, 725, 3, -0.5, 726, 3, -0.5
*EQUATION
3
1287, 1, 1.0, 681, 1, -0.5, 683, 1, -0.5
*EQUATION
3
1287, 2, 1.0, 681, 2, -0.5, 683, 2, -0.5
*EQUATION
3
1287, 3, 1.0, 681, 3, -0.5, 683, 3, -0.5
*EQUATION
3
1288, 1, 1.0, 681, 1, -0.5, 682, 1, -0.5
*EQUATION
3
1288, 2, 1.0, 681, 2, -0.5, 682, 2, -0.5
*EQUATION
3
1288, 3, 1.0, 681, 3, -0.5, 682, 3, -0.5
*EQUATION
5
1289, 1, 1.0, 681, 1, -0.25, 682, 1, -0.25, 684, 1, -0.25, 683, 1, -0.25
*EQUATION
5
1289, 2, 1.0, 681, 2, -0.25, 682, 2, -0.25, 684, 2, -0.25, 683, 2, -0.25
*EQUATION
5
1289, 3, 1.0, 681, 3, -0.25, 682, 3, -0.25, 684, 3, -0.25, 683, 3, -0.25
*EQUATION
3
1290, 1, 1.0, 683, 1, -0.5, 684, 1, -0.5
*EQUATION
3
1290, 2, 1.0, 683, 2, -0.5, 684, 2, -0.5
*EQUATION
3
1290, 3, 1.0, 683, 3, -0.5, 684, 3, -0.5
*EQUATION
3
1291, 1, 1.0, 682, 1, -0.5, 684, 1, -0.5
*EQUATION
3
1291, 2, 1.0, 682, 2, -0.5, 684, 2, -0.5
*EQUATION
3
1291, 3, 1.0, 682, 3, -0.5, 684, 3, -0.5
*EQUATION
3
1292, 1, 1.0, 681, 1, -0.5, 729, 1, -0.5
*EQUATION
3
1292, 2, 1.0, 681, 2, -0.5, 729, 2, -0.5
*EQUATION
3
1292, 3, 1.0, 681, 3, -0.5, 729, 3, -0.5
*EQUATION
3
1294, 1, 1.0, 683, 1, -0.5, 731, 1, -0.5
*EQUATION
3
1294, 2, 1.0, 683, 2, -0.5, 731, 2, -0.5
*EQUATION
3
1294, 3, 1.0, 683, 3, -0.5, 731, 3, -0.5
*EQUATION
5
1295, 1, 1.0, 681, 1, -0.25, 729, 1, -0.25, 730, 1, -0.25, 682, 1, -0.25
*EQUATION
5
1295, 2, 1.0, 681, 2, -0.25, 729, 2, -0.25, 730, 2, -0.25, 682, 2, -0.25
*EQUATION
5
1295, 3, 1.0, 681, 3, -0.25, 729, 3, -0.25, 730, 3, -0.25, 682, 3, -0.25
*EQUATION
5
1297, 1, 1.0, 683, 1, -0.25, 731, 1, -0.25, 732, 1, -0.25, 684, 1, -0.25
*EQUATION
5
1297, 2, 1.0, 683, 2, -0.25, 731, 2, -0.25, 732, 2, -0.25, 684, 2, -0.25
*EQUATION
5
1297, 3, 1.0, 683, 3, -0.25, 731, 3, -0.25, 732, 3, -0.25, 684, 3, -0.25
*EQUATION
3
1298, 1, 1.0, 682, 1, -0.5, 730, 1, -0.5
*EQUATION
3
1298, 2, 1.0, 682, 2, -0.5, 730, 2, -0.5
*EQUATION
3
1298, 3, 1.0, 682, 3, -0.5, 730, 3, -0.5
*EQUATION
3
1300, 1, 1.0, 684, 1, -0.5, 732, 1, -0.5
*EQUATION
3
1300, 2, 1.0, 684, 2, -0.5, 732, 2, -0.5
*EQUATION
3
1300, 3, 1.0, 684, 3, -0.5, 732, 3, -0.5
*EQUATION
3
1302, 1, 1.0, 729, 1, -0.5, 730, 1, -0.5
*EQUATION
3
1302, 2, 1.0, 729, 2, -0.5, 730, 2, -0.5
*EQUATION
3
1302, 3, 1.0, 729, 3, -0.5, 730, 3, -0.5
*EQUATION
3
1304, 1, 1.0, 731, 1, -0.5, 732, 1, -0.5
*EQUATION
3
1304, 2, 1.0, 731, 2, -0.5, 732, 2, -0.5
*EQUATION
3
1304, 3, 1.0, 731, 3, -0.5, 732, 3, -0.5
*EQUATION
5
1307, 1, 1.0, 678, 1, -0.25, 726, 1, -0.25, 735, 1, -0.25, 687, 1, -0.25
*EQUATION
5
1307, 2, 1.0, 678, 2, -0.25, 726, 2, -0.25, 735, 2, -0.25, 687, 2, -0.25
*EQUATION
5
1307, 3, 1.0, 678, 3, -0.25, 726, 3, -0.25, 735, 3, -0.25, 687, 3, -0.25
*EQUATION
3
1309, 1, 1.0, 687, 1, -0.5, 735, 1, -0.5
*EQUATION
3
1309, 2, 1.0, 687, 2, -0.5, 735, 2, -0.5
*EQUATION
3
1309, 3, 1.0, 687, 3, -0.5, 735, 3, -0.5
*EQUATION
3
1311, 1, 1.0, 726, 1, -0.5, 735, 1, -0.5
*EQUATION
3
1311, 2, 1.0, 726, 2, -0.5, 735, 2, -0.5
*EQUATION
3
1311, 3, 1.0, 726, 3, -0.5, 735, 3, -0.5
*EQUATION
3
1313, 1, 1.0, 682, 1, -0.5, 689, 1, -0.5
*EQUATION
3
1313, 2, 1.0, 682, 2, -0.5, 689, 2, -0.5
*EQUATION
3
1313, 3, 1.0, 682, 3, -0.5, 689, 3, -0.5
*EQUATION
5
1314, 1, 1.0, 682, 1, -0.25, 689, 1, -0.25, 690, 1, -0.25, 684, 1, -0.25
*EQUATION
5
1314, 2, 1.0, 682, 2, -0.25, 689, 2, -0.25, 690, 2, -0.25, 684, 2, -0.25
*EQUATION
5
1314, 3, 1.0, 682, 3, -0.25, 689, 3, -0.25, 690, 3, -0.25, 684, 3, -0.25
*EQUATION
3
1315, 1, 1.0, 684, 1, -0.5, 690, 1, -0.5
*EQUATION
3
1315, 2, 1.0, 684, 2, -0.5, 690, 2, -0.5
*EQUATION
3
1315, 3, 1.0, 684, 3, -0.5, 690, 3, -0.5
*EQUATION
3
1316, 1, 1.0, 689, 1, -0.5, 690, 1, -0.5
*EQUATION
3
1316, 2, 1.0, 689, 2, -0.5, 690, 2, -0.5
*EQUATION
3
1316, 3, 1.0, 689, 3, -0.5, 690, 3, -0.5
*EQUATION
5
1317, 1, 1.0, 682, 1, -0.25, 730, 1, -0.25, 737, 1, -0.25, 689, 1, -0.25
*EQUATION
5
1317, 2, 1.0, 682, 2, -0.25, 730, 2, -0.25, 737, 2, -0.25, 689, 2, -0.25
*EQUATION
5
1317, 3, 1.0, 682, 3, -0.25, 730, 3, -0.25, 737, 3, -0.25, 689, 3, -0.25
*EQUATION
5
1319, 1, 1.0, 684, 1, -0.25, 732, 1, -0.25, 738, 1, -0.25, 690, 1, -0.25
*EQUATION
5
1319, 2, 1.0, 684, 2, -0.25, 732, 2, -0.25, 738, 2, -0.25, 690, 2, -0.25
*EQUATION
5
1319, 3, 1.0, 684, 3, -0.25, 732, 3, -0.25, 738, 3, -0.25, 690, 3, -0.25
*EQUATION
3
1320, 1, 1.0, 689, 1, -0.5, 737, 1, -0.5
*EQUATION
3
1320, 2, 1.0, 689, 2, -0.5, 737, 2, -0.5
*EQUATION
3
1320, 3, 1.0, 689, 3, -0.5, 737, 3, -0.5
*EQUATION
3
1322, 1, 1.0, 690, 1, -0.5, 738, 1, -0.5
*EQUATION
3
1322, 2, 1.0, 690, 2, -0.5, 738, 2, -0.5
*EQUATION
3
1322, 3, 1.0, 690, 3, -0.5, 738, 3, -0.5
*EQUATION
3
1323, 1, 1.0, 730, 1, -0.5, 737, 1, -0.5
*EQUATION
3
1323, 2, 1.0, 730, 2, -0.5, 737, 2, -0.5
*EQUATION
3
1323, 3, 1.0, 730, 3, -0.5, 737, 3, -0.5
*EQUATION
3
1325, 1, 1.0, 732, 1, -0.5, 738, 1, -0.5
*EQUATION
3
1325, 2, 1.0, 732, 2, -0.5, 738, 2, -0.5
*EQUATION
3
1325, 3, 1.0, 732, 3, -0.5, 738, 3, -0.5
*EQUATION
3
1328, 1, 1.0, 725, 1, -0.5, 773, 1, -0.5
*EQUATION
3
1328, 2, 1.0, 725, 2, -0.5, 773, 2, -0.5
*EQUATION
3
1328, 3, 1.0, 725, 3, -0.5, 773, 3, -0.5
*EQUATION
5
1330, 1, 1.0, 725, 1, -0.25, 773, 1, -0.25, 774, 1, -0.25, 726, 1, -0.25
*EQUATION
5
1330, 2, 1.0, 725, 2, -0.25, 773, 2, -0.25, 774, 2, -0.25, 726, 2, -0.25
*EQUATION
5
1330, 3, 1.0, 725, 3, -0.25, 773, 3, -0.25, 774, 3, -0.25, 726, 3, -0.25
*EQUATION
3
1332, 1, 1.0, 726, 1, -0.5, 774, 1, -0.5
*EQUATION
3
1332, 2, 1.0, 726, 2, -0.5, 774, 2, -0.5
*EQUATION
3
1332, 3, 1.0, 726, 3, -0.5, 774, 3, -0.5
*EQUATION
3
1335, 1, 1.0, 773, 1, -0.5, 774, 1, -0.5
*EQUATION
3
1335, 2, 1.0, 773, 2, -0.5, 774, 2, -0.5
*EQUATION
3
1335, 3, 1.0, 773, 3, -0.5, 774, 3, -0.5
*EQUATION
3
1337, 1, 1.0, 729, 1, -0.5, 777, 1, -0.5
*EQUATION
3
1337, 2, 1.0, 729, 2, -0.5, 777, 2, -0.5
*EQUATION
3
1337, 3, 1.0, 729, 3, -0.5, 777, 3, -0.5
*EQUATION
3
1339, 1, 1.0, 731, 1, -0.5, 779, 1, -0.5
*EQUATION
3
1339, 2, 1.0, 731, 2, -0.5, 779, 2, -0.5
*EQUATION
3
1339, 3, 1.0, 731, 3, -0.5, 779, 3, -0.5
*EQUATION
5
1340, 1, 1.0, 729, 1, -0.25, 777, 1, -0.25, 778, 1, -0.25, 730, 1, -0.25
*EQUATION
5
1340, 2, 1.0, 729, 2, -0.25, 777, 2, -0.25, 778, 2, -0.25, 730, 2, -0.25
*EQUATION
5
1340, 3, 1.0, 729, 3, -0.25, 777, 3, -0.25, 778, 3, -0.25, 730, 3, -0.25
*EQUATION
5
1342, 1, 1.0, 731, 1, -0.25, 779, 1, -0.25, 780, 1, -0.25, 732, 1, -0.25
*EQUATION
5
1342, 2, 1.0, 731, 2, -0.25, 779, 2, -0.25, 780, 2, -0.25, 732, 2, -0.25
*EQUATION
5
1342, 3, 1.0, 731, 3, -0.25, 779, 3, -0.25, 780, 3, -0.25, 732, 3, -0.25
*EQUATION
3
1343, 1, 1.0, 730, 1, -0.5, 778, 1, -0.5
*EQUATION
3
1343, 2, 1.0, 730, 2, -0.5, 778, 2, -0.5
*EQUATION
3
1343, 3, 1.0, 730, 3, -0.5, 778, 3, -0.5
*EQUATION
3
1345, 1, 1.0, 732, 1, -0.5, 780, 1, -0.5
*EQUATION
3
1345, 2, 1.0, 732, 2, -0.5, 780, 2, -0.5
*EQUATION
3
1345, 3, 1.0, 732, 3, -0.5, 780, 3, -0.5
*EQUATION
3
1347, 1, 1.0, 777, 1, -0.5, 778, 1, -0.5
*EQUATION
3
1347, 2, 1.0, 777, 2, -0.5, 778, 2, -0.5
*EQUATION
3
1347, 3, 1.0, 777, 3, -0.5, 778, 3, -0.5
*EQUATION
3
1349, 1, 1.0, 779, 1, -0.5, 780, 1, -0.5
*EQUATION
3
1349, 2, 1.0, 779, 2, -0.5, 780, 2, -0.5
*EQUATION
3
1349, 3, 1.0, 779, 3, -0.5, 780, 3, -0.5
*EQUATION
5
1352, 1, 1.0, 726, 1, -0.25, 774, 1, -0.25, 783, 1, -0.25, 735, 1, -0.25
*EQUATION
5
1352, 2, 1.0, 726, 2, -0.25, 774, 2, -0.25, 783, 2, -0.25, 735, 2, -0.25
*EQUATION
5
1352, 3, 1.0, 726, 3, -0.25, 774, 3, -0.25, 783, 3, -0.25, 735, 3, -0.25
*EQUATION
3
1354, 1, 1.0, 735, 1, -0.5, 783, 1, -0.5
*EQUATION
3
1354, 2, 1.0, 735, 2, -0.5, 783, 2, -0.5
*EQUATION
3
1354, 3, 1.0, 735, 3, -0.5, 783, 3, -0.5
*EQUATION
3
1356, 1, 1.0, 774, 1, -0.5, 783, 1, -0.5
*EQUATION
3
1356, 2, 1.0, 774, 2, -0.5, 783, 2, -0.5
*EQUATION
3
1356, 3, 1.0, 774, 3, -0.5, 783, 3, -0.5
*EQUATION
5
1358, 1, 1.0, 730, 1, -0.25, 778, 1, -0.25, 785, 1, -0.25, 737, 1, -0.25
*EQUATION
5
1358, 2, 1.0, 730, 2, -0.25, 778, 2, -0.25, 785, 2, -0.25, 737, 2, -0.25
*EQUATION
5
1358, 3, 1.0, 730, 3, -0.25, 778, 3, -0.25, 785, 3, -0.25, 737, 3, -0.25
*EQUATION
5
1360, 1, 1.0, 732, 1, -0.25, 780, 1, -0.25, 786, 1, -0.25, 738, 1, -0.25
*EQUATION
5
1360, 2, 1.0, 732, 2, -0.25, 780, 2, -0.25, 786, 2, -0.25, 738, 2, -0.25
*EQUATION
5
1360, 3, 1.0, 732, 3, -0.25, 780, 3, -0.25, 786, 3, -0.25, 738, 3, -0.25
*EQUATION
3
1361, 1, 1.0, 737, 1, -0.5, 785, 1, -0.5
*EQUATION
3
1361, 2, 1.0, 737, 2, -0.5, 785, 2, -0.5
*EQUATION
3
1361, 3, 1.0, 737, 3, -0.5, 785, 3, -0.5
*EQUATION
3
1363, 1, 1.0, 738, 1, -0.5, 786, 1, -0.5
*EQUATION
3
1363, 2, 1.0, 738, 2, -0.5, 786, 2, -0.5
*EQUATION
3
1363, 3, 1.0, 738, 3, -0.5, 786, 3, -0.5
*EQUATION
3
1364, 1, 1.0, 778, 1, -0.5, 785, 1, -0.5
*EQUATION
3
1364, 2, 1.0, 778, 2, -0.5, 785, 2, -0.5
*EQUATION
3
1364, 3, 1.0, 778, 3, -0.5, 785, 3, -0.5
*EQUATION
3
1366, 1, 1.0, 780, 1, -0.5, 786, 1, -0.5
*EQUATION
3
1366, 2, 1.0, 780, 2, -0.5, 786, 2, -0.5
*EQUATION
3
1366, 3, 1.0, 780, 3, -0.5, 786, 3, -0.5
*EQUATION
3
1369, 1, 1.0, 773, 1, -0.5, 821, 1, -0.5
*EQUATION
3
1369, 2, 1.0, 773, 2, -0.5, 821, 2, -0.5
*EQUATION
3
1369, 3, 1.0, 773, 3, -0.5, 821, 3, -0.5
*EQUATION
5
1371, 1, 1.0, 773, 1, -0.25, 821, 1, -0.25, 822, 1, -0.25, 774, 1, -0.25
*EQUATION
5
1371, 2, 1.0, 773, 2, -0.25, 821, 2, -0.25, 822, 2, -0.25, 774, 2, -0.25
*EQUATION
5
1371, 3, 1.0, 773, 3, -0.25, 821, 3, -0.25, 822, 3, -0.25, 774, 3, -0.25
*EQUATION
3
1373, 1, 1.0, 774, 1, -0.5, 822, 1, -0.5
*EQUATION
3
1373, 2, 1.0, 774, 2, -0.5, 822, 2, -0.5
*EQUATION
3
1373, 3, 1.0, 774, 3, -0.5, 822, 3, -0.5
*EQUATION
3
1376, 1, 1.0, 821, 1, -0.5, 822, 1, -0.5
*EQUATION
3
1376, 2, 1.0, 821, 2, -0.5, 822, 2, -0.5
*EQUATION
3
1376, 3, 1.0, 821, 3, -0.5, 822, 3, -0.5
*EQUATION
3
1378, 1, 1.0, 777, 1, -0.5, 825, 1, -0.5
*EQUATION
3
1378, 2, 1.0, 777, 2, -0.5, 825, 2, -0.5
*EQUATION
3
1378, 3, 1.0, 777, 3, -0.5, 825, 3, -0.5
*EQUATION
3
1380, 1, 1.0, 779, 1, -0.5, 827, 1, -0.5
*EQUATION
3
1380, 2, 1.0, 779, 2, -0.5, 827, 2, -0.5
*EQUATION
3
1380, 3, 1.0, 779, 3, -0.5, 827, 3, -0.5
*EQUATION
5
1381, 1, 1.0, 777, 1, -0.25, 825, 1, -0.25, 826, 1, -0.25, 778, 1, -0.25
*EQUATION
5
1381, 2, 1.0, 777, 2, -0.25, 825, 2, -0.25, 826, 2, -0.25, 778, 2, -0.25
*EQUATION
5
1381, 3, 1.0, 777, 3, -0.25, 825, 3, -0.25, 826, 3, -0.25, 778, 3, -0.25
*EQUATION
5
1383, 1, 1.0, 779, 1, -0.25, 827, 1, -0.25, 828, 1, -0.25, 780, 1, -0.25
*EQUATION
5
1383, 2, 1.0, 779, 2, -0.25, 827, 2, -0.25, 828, 2, -0.25, 780, 2, -0.25
*EQUATION
5
1383, 3, 1.0, 779, 3, -0.25, 827, 3, -0.25, 828, 3, -0.25, 780, 3, -0.25
*EQUATION
3
1384, 1, 1.0, 778, 1, -0.5, 826, 1, -0.5
*EQUATION
3
1384, 2, 1.0, 778, 2, -0.5, 826, 2, -0.5
*EQUATION
3
1384, 3, 1.0, 778, 3, -0.5, 826, 3, -0.5
*EQUATION
3
1386, 1, 1.0, 780, 1, -0.5, 828, 1, -0.5
*EQUATION
3
1386, 2, 1.0, 780, 2, -0.5, 828, 2, -0.5
*EQUATION
3
1386, 3, 1.0, 780, 3, -0.5, 828, 3, -0.5
*EQUATION
3
1388, 1, 1.0, 825, 1, -0.5, 826, 1, -0.5
*EQUATION
3
1388, 2, 1.0, 825, 2, -0.5, 826, 2, -0.5
*EQUATION
3
1388, 3, 1.0, 825, 3, -0.5, 826, 3, -0.5
*EQUATION
3
1390, 1, 1.0, 827, 1, -0.5, 828, 1, -0.5
*EQUATION
3
1390, 2, 1.0, 827, 2, -0.5, 828, 2, -0.5
*EQUATION
3
1390, 3, 1.0, 827, 3, -0.5, 828, 3, -0.5
*EQUATION
5
1393, 1, 1.0, 774, 1, -0.25, 822, 1, -0.25, 831, 1, -0.25, 783, 1, -0.25
*EQUATION
5
1393, 2, 1.0, 774, 2, -0.25, 822, 2, -0.25, 831, 2, -0.25, 783, 2, -0.25
*EQUATION
5
1393, 3, 1.0, 774, 3, -0.25, 822, 3, -0.25, 831, 3, -0.25, 783, 3, -0.25
*EQUATION
3
1395, 1, 1.0, 783, 1, -0.5, 831, 1, -0.5
*EQUATION
3
1395, 2, 1.0, 783, 2, -0.5, 831, 2, -0.5
*EQUATION
3
1395, 3, 1.0, 783, 3, -0.5, 831, 3, -0.5
*EQUATION
3
1397, 1, 1.0, 822, 1, -0.5, 831, 1, -0.5
*EQUATION
3
1397, 2, 1.0, 822, 2, -0.5, 831, 2, -0.5
*EQUATION
3
1397, 3, 1.0, 822, 3, -0.5, 831, 3, -0.5
*EQUATION
5
1399, 1, 1.0, 778, 1, -0.25, 826, 1, -0.25, 833, 1, -0.25, 785, 1, -0.25
*EQUATION
5
1399, 2, 1.0, 778, 2, -0.25, 826, 2, -0.25, 833, 2, -0.25, 785, 2, -0.25
*EQUATION
5
1399, 3, 1.0, 778, 3, -0.25, 826, 3, -0.25, 833, 3, -0.25, 785, 3, -0.25
*EQUATION
5
1401, 1, 1.0, 780, 1, -0.25, 828, 1, -0.25, 834, 1, -0.25, 786, 1, -0.25
*EQUATION
5
1401, 2, 1.0, 780, 2, -0.25, 828, 2, -0.25, 834, 2, -0.25, 786, 2, -0.25
*EQUATION
5
1401, 3, 1.0, 780, 3, -0.25, 828, 3, -0.25, 834, 3, -0.25, 786, 3, -0.25
*EQUATION
3
1402, 1, 1.0, 785, 1, -0.5, 833, 1, -0.5
*EQUATION
3
1402, 2, 1.0, 785, 2, -0.5, 833, 2, -0.5
*EQUATION
3
1402, 3, 1.0, 785, 3, -0.5, 833, 3, -0.5
*EQUATION
3
1404, 1, 1.0, 786, 1, -0.5, 834, 1, -0.5
*EQUATION
3
1404, 2, 1.0, 786, 2, -0.5, 834, 2, -0.5
*EQUATION
3
1404, 3, 1.0, 786, 3, -0.5, 834, 3, -0.5
*EQUATION
3
1405, 1, 1.0, 826, 1, -0.5, 833, 1, -0.5
*EQUATION
3
1405, 2, 1.0, 826, 2, -0.5, 833, 2, -0.5
*EQUATION
3
1405, 3, 1.0, 826, 3, -0.5, 833, 3, -0.5
*EQUATION
3
1407, 1, 1.0, 828, 1, -0.5, 834, 1, -0.5
*EQUATION
3
1407, 2, 1.0, 828, 2, -0.5, 834, 2, -0.5
*EQUATION
3
1407, 3, 1.0, 828, 3, -0.5, 834, 3, -0.5
*EQUATION
3
1410, 1, 1.0, 821, 1, -0.5, 869, 1, -0.5
*EQUATION
3
1410, 2, 1.0, 821, 2, -0.5, 869, 2, -0.5
*EQUATION
3
1410, 3, 1.0, 821, 3, -0.5, 869, 3, -0.5
*EQUATION
5
1412, 1, 1.0, 821, 1, -0.25, 869, 1, -0.25, 870, 1, -0.25, 822, 1, -0.25
*EQUATION
5
1412, 2, 1.0, 821, 2, -0.25, 869, 2, -0.25, 870, 2, -0.25, 822, 2, -0.25
*EQUATION
5
1412, 3, 1.0, 821, 3, -0.25, 869, 3, -0.25, 870, 3, -0.25, 822, 3, -0.25
*EQUATION
3
1414, 1, 1.0, 822, 1, -0.5, 870, 1, -0.5
*EQUATION
3
1414, 2, 1.0, 822, 2, -0.5, 870, 2, -0.5
*EQUATION
3
1414, 3, 1.0, 822, 3, -0.5, 870, 3, -0.5
*EQUATION
3
1417, 1, 1.0, 869, 1, -0.5, 870, 1, -0.5
*EQUATION
3
1417, 2, 1.0, 869, 2, -0.5, 870, 2, -0.5
*EQUATION
3
1417, 3, 1.0, 869, 3, -0.5, 870, 3, -0.5
*EQUATION
3
1419, 1, 1.0, 825, 1, -0.5, 873, 1, -0.5
*EQUATION
3
1419, 2, 1.0, 825, 2, -0.5, 873, 2, -0.5
*EQUATION
3
1419, 3, 1.0, 825, 3, -0.5, 873, 3, -0.5
*EQUATION
3
1421, 1, 1.0, 827, 1, -0.5, 875, 1, -0.5
*EQUATION
3
1421, 2, 1.0, 827, 2, -0.5, 875, 2, -0.5
*EQUATION
3
1421, 3, 1.0, 827, 3, -0.5, 875, 3, -0.5
*EQUATION
5
1422, 1, 1.0, 825, 1, -0.25, 873, 1, -0.25, 874, 1, -0.25, 826, 1, -0.25
*EQUATION
5
1422, 2, 1.0, 825, 2, -0.25, 873, 2, -0.25, 874, 2, -0.25, 826, 2, -0.25
*EQUATION
5
1422, 3, 1.0, 825, 3, -0.25, 873, 3, -0.25, 874, 3, -0.25, 826, 3, -0.25
*EQUATION
5
1424, 1, 1.0, 827, 1, -0.25, 875, 1, -0.25, 876, 1, -0.25, 828, 1, -0.25
*EQUATION
5
1424, 2, 1.0, 827, 2, -0.25, 875, 2, -0.25, 876, 2, -0.25, 828, 2, -0.25
*EQUATION
5
1424, 3, 1.0, 827, 3, -0.25, 875, 3, -0.25, 876, 3, -0.25, 828, 3, -0.25
*EQUATION
3
1425, 1, 1.0, 826, 1, -0.5, 874, 1, -0.5
*EQUATION
3
1425, 2, 1.0, 826, 2, -0.5, 874, 2, -0.5
*EQUATION
3
1425, 3, 1.0, 826, 3, -0.5, 874, 3, -0.5
*EQUATION
3
1427, 1, 1.0, 828, 1, -0.5, 876, 1, -0.5
*EQUATION
3
1427, 2, 1.0, 828, 2, -0.5, 876, 2, -0.5
*EQUATION
3
1427, 3, 1.0, 828, 3, -0.5, 876, 3, -0.5
*EQUATION
3
1429, 1, 1.0, 873, 1, -0.5, 874, 1, -0.5
*EQUATION
3
1429, 2, 1.0, 873, 2, -0.5, 874, 2, -0.5
*EQUATION
3
1429, 3, 1.0, 873, 3, -0.5, 874, 3, -0.5
*EQUATION
3
1431, 1, 1.0, 875, 1, -0.5, 876, 1, -0.5
*EQUATION
3
1431, 2, 1.0, 875, 2, -0.5, 876, 2, -0.5
*EQUATION
3
1431, 3, 1.0, 875, 3, -0.5, 876, 3, -0.5
*EQUATION
5
1434, 1, 1.0, 822, 1, -0.25, 870, 1, -0.25, 879, 1, -0.25, 831, 1, -0.25
*EQUATION
5
1434, 2, 1.0, 822, 2, -0.25, 870, 2, -0.25, 879, 2, -0.25, 831, 2, -0.25
*EQUATION
5
1434, 3, 1.0, 822, 3, -0.25, 870, 3, -0.25, 879, 3, -0.25, 831, 3, -0.25
*EQUATION
3
1436, 1, 1.0, 831, 1, -0.5, 879, 1, -0.5
*EQUATION
3
1436, 2, 1.0, 831, 2, -0.5, 879, 2, -0.5
*EQUATION
3
1436, 3, 1.0, 831, 3, -0.5, 879, 3, -0.5
*EQUATION
3
1438, 1, 1.0, 870, 1, -0.5, 879, 1, -0.5
*EQUATION
3
1438, 2, 1.0, 870, 2, -0.5, 879, 2, -0.5
*EQUATION
3
1438, 3, 1.0, 870, 3, -0.5, 879, 3, -0.5
*EQUATION
5
1440, 1, 1.0, 826, 1, -0.25, 874, 1, -0.25, 881, 1, -0.25, 833, 1, -0.25
*EQUATION
5
1440, 2, 1.0, 826, 2, -0.25, 874, 2, -0.25, 881, 2, -0.25, 833, 2, -0.25
*EQUATION
5
1440, 3, 1.0, 826, 3, -0.25, 874, 3, -0.25, 881, 3, -0.25, 833, 3, -0.25
*EQUATION
5
1442, 1, 1.0, 828, 1, -0.25, 876, 1, -0.25, 882, 1, -0.25, 834, 1, -0.25
*EQUATION
5
1442, 2, 1.0, 828, 2, -0.25, 876, 2, -0.25, 882, 2, -0.25, 834, 2, -0.25
*EQUATION
5
1442, 3, 1.0, 828, 3, -0.25, 876, 3, -0.25, 882, 3, -0.25, 834, 3, -0.25
*EQUATION
3
1443, 1, 1.0, 833, 1, -0.5, 881, 1, -0.5
*EQUATION
3
1443, 2, 1.0, 833, 2, -0.5, 881, 2, -0.5
*EQUATION
3
1443, 3, 1.0, 833, 3, -0.5, 881, 3, -0.5
*EQUATION
3
1445, 1, 1.0, 834, 1, -0.5, 882, 1, -0.5
*EQUATION
3
1445, 2, 1.0, 834, 2, -0.5, 882, 2, -0.5
*EQUATION
3
1445, 3, 1.0, 834, 3, -0.5, 882, 3, -0.5
*EQUATION
3
1446, 1, 1.0, 874, 1, -0.5, 881, 1, -0.5
*EQUATION
3
1446, 2, 1.0, 874, 2, -0.5, 881, 2, -0.5
*EQUATION
3
1446, 3, 1.0, 874, 3, -0.5, 881, 3, -0.5
*EQUATION
3
1448, 1, 1.0, 876, 1, -0.5, 882, 1, -0.5
*EQUATION
3
1448, 2, 1.0, 876, 2, -0.5, 882, 2, -0.5
*EQUATION
3
1448, 3, 1.0, 876, 3, -0.5, 882, 3, -0.5
*BOUNDARY
CLAMP, 1, 3, 0.0
*STEP
*STATIC
*CLOAD
887, 3, -454.545454545
888, 3, -454.545454545
891, 3, -454.545454545
894, 3, -454.545454545
896, 3, -454.545454545
898, 3, -454.545454545
900, 3, -454.545454545
903, 3, -454.545454545
906, 3, -454.545454545
909, 3, -454.545454545
912, 3, -454.545454545
*NODE FILE
U
*EL FILE
S, ENER
*NODE PRINT, NSET=TIP_TOP
U
*NODE PRINT, NSET=CLAMP
RF
*EL PRINT, ELSET=EALL
ELSE
*ENERGY PRINT
*END STEP
