*HEADING
R8 reentrant h-branch ccx vs in-process
local Dirichlet problem; displacements on the cut from the global FE solution
*NODE, NSET=NALL
1, 0, -10, 140
2, 0, -10, 145
3, 0, -10, 150
4, 0, -5, 140
5, 0, -5, 145
6, 0, -5, 150
7, 0, 0, 140
8, 0, 0, 145
9, 0, 0, 150
10, 55.5555555556, -10, 140
11, 55.5555555556, -10, 145
12, 55.5555555556, -10, 150
13, 55.5555555556, -5, 140
14, 55.5555555556, -5, 145
15, 55.5555555556, -5, 150
16, 55.5555555556, 0, 140
17, 55.5555555556, 0, 145
18, 55.5555555556, 0, 150
19, 111.111111111, -10, 140
20, 111.111111111, -10, 145
** ... 115 like lines cut
*ELEMENT, TYPE=C3D8, ELSET=EALL
1, 1, 10, 13, 4, 2, 11, 14, 5
2, 2, 11, 14, 5, 3, 12, 15, 6
3, 4, 13, 16, 7, 5, 14, 17, 8
4, 5, 14, 17, 8, 6, 15, 18, 9
5, 10, 19, 22, 13, 11, 20, 23, 14
6, 11, 20, 23, 14, 12, 21, 24, 15
7, 13, 22, 25, 16, 14, 23, 26, 17
8, 14, 23, 26, 17, 15, 24, 27, 18
9, 28, 34, 37, 30, 29, 35, 38, 31
10, 29, 35, 38, 31, 19, 36, 39, 22
11, 30, 37, 40, 32, 31, 38, 41, 33
12, 31, 38, 41, 33, 22, 39, 42, 25
13, 34, 43, 46, 37, 35, 44, 47, 38
14, 35, 44, 47, 38, 36, 45, 48, 39
15, 37, 46, 49, 40, 38, 47, 50, 41
16, 38, 47, 50, 41, 39, 48, 51, 42
17, 52, 58, 61, 55, 53, 59, 62, 56
18, 53, 59, 62, 56, 54, 60, 63, 57
19, 55, 61, 36, 19, 56, 62, 64, 20
20, 56, 62, 64, 20, 57, 63, 65, 21
** ... 36 like lines cut
*NSET, NSET=BDRY
1, 2, 3, 4, 5, 6, 7, 8, 9, 10, 11, 12, 13, 15, 16, 17
18, 19, 20, 21, 22, 24, 25, 26, 27, 28, 29, 30, 31, 32, 33, 34
35, 36, 37, 40, 41, 42, 43, 44, 45, 46, 47, 48, 49, 50, 51, 52
53, 54, 55, 56, 57, 58, 59, 60, 61, 63, 65, 66, 67, 68, 69, 70
71, 72, 73, 77, 79, 80, 81, 82, 83, 84, 85, 86, 87, 88, 89, 91
92, 93, 94, 95, 96, 97, 98, 99, 100, 101, 102, 103, 104, 105, 106, 108
109, 110, 111, 112, 113, 114, 115, 116, 117, 118, 119, 120, 121, 123, 124, 125
126, 127, 128, 129, 130, 131, 132, 133, 134, 135
*NSET, NSET=FREE
14, 23, 38, 39, 62, 64, 74, 75, 76, 78, 90, 107, 122
*MATERIAL, NAME=STEEL
*ELASTIC
210000, 0.3
*SOLID SECTION, ELSET=EALL, MATERIAL=STEEL
*BOUNDARY
1, 1, 1, 0
1, 2, 2, 0
1, 3, 3, 0
2, 1, 1, 0
2, 2, 2, 0
2, 3, 3, 0
3, 1, 1, 0
3, 2, 2, 0
3, 3, 3, 0
4, 1, 1, 0
4, 2, 2, 0
4, 3, 3, 0
5, 1, 1, 0
5, 2, 2, 0
5, 3, 3, 0
6, 1, 1, 0
6, 2, 2, 0
6, 3, 3, 0
7, 1, 1, 0
7, 2, 2, 0
** ... 346 like lines cut
*STEP
*STATIC
*NODE FILE
U
*EL FILE
S, ENER
*EL PRINT, ELSET=EALL
ELSE
*ENERGY PRINT
*END STEP
